74
Properties=species:S:1:pos:R:3 energy=-0.9763061642841417 pbc="T T T"
C       -7.41250400       6.77425700      -0.66711500
C       -7.75704300       6.70316200      -2.14331600
N       -8.66016600       7.46503500      -2.67572900
C       -8.92711500       7.36931900      -3.96678400
S       -7.84184800       6.13072500      -4.47121000
C       -7.11498200       5.82146300      -2.96501300
C       -6.06359300       4.84236600      -2.60043800
C       -5.53490400       3.98183800      -3.52083500
C       -4.54175900       3.05720100      -3.15731300
C       -4.08580500       3.00717100      -1.86625400
C       -3.02467300       1.98386300      -1.48011700
C       -1.70957400       2.37434200      -2.01336700
C       -0.60702400       1.46757700      -1.71159100
O       -0.69308700       0.49237100      -0.94221600
N        0.65083200       1.69333500      -2.32639200
C        1.84985000       0.95554600      -2.19321500
C        2.40146100       0.92225000      -0.79681400
C        2.67012800       2.33776600      -0.36946200
C        3.27856700       2.42825700       1.02147000
C        4.61587500       1.71136100       1.06084100
C        4.37634700       0.26569700       0.70564400
N        5.62855600      -0.49967200       0.69040100
C        6.67901700      -0.16045900      -0.19255200
O        6.39802000       0.86774600      -0.94902700
C        7.96510600      -0.77990200      -0.35581200
O        8.41917600      -1.82716200       0.36057200
C        8.65709400      -2.01683400       1.69820000
C        9.87233100      -1.65248900       2.22690000
C       10.91330100      -1.07675000       1.34049500
C       10.72705200      -0.93461400      -0.01100900
S       12.20591600      -0.26354000      -0.51710200
C       12.97721200      -0.20042100       1.00574700
N       14.30740800       0.27358500       1.32416900
C       15.15880700       0.76571100       0.27899100
C       16.51160300       0.06994800       0.44057700
O       16.96190600       0.41244200       1.72409600
C       16.19984800      -0.17803900       2.72647800
C       14.75409100       0.24765300       2.67376600
N       12.06568700      -0.69380900       1.81800100
C       10.08608400      -1.85293900       3.57503900
C        9.12389100      -2.40216900       4.38540300
C        7.91799700      -2.76904100       3.86990000
F        6.93847700      -3.32432100       4.66419900
C        7.67082600      -2.58093400       2.52150200
F        6.47330700      -2.99074500       2.02594100
N       -3.51772700       0.69472300      -2.00350800
C       -4.43893500      -0.01777000      -1.19661500
O       -4.77809500       0.49026900      -0.09975700
C       -5.03534400      -1.33801000      -1.57884900
C       -5.51008200      -1.33971800      -3.00481800
C       -6.97788900      -0.90288400      -2.95004000
O       -7.83872800      -1.96359900      -3.24077300
C       -7.18196600      -0.55396700      -1.47884900
N       -6.26994700      -1.46721400      -0.83430700
C       -6.55161800      -2.28735900       0.26970100
O       -5.63954500      -3.08110500       0.72847000
C       -7.83762400      -2.33906000       0.98670800
N       -7.85685400      -3.44468800       1.95009900
C       -8.78046500      -4.50788500       1.76979000
O       -9.59890600      -4.54397600       0.80067500
C       -8.80195500      -5.64401200       2.75844900
F       -7.94526400      -5.61271900       3.82537800
C       -9.13630300      -6.98677100       2.21347100
C      -10.16712500      -6.28262900       3.06407300
C       -8.15435800      -1.06378400       1.76353500
C       -9.51799700      -1.31564900       2.44785800
C       -7.13767100      -0.80266600       2.83081600
C       -8.37452400       0.14323500       0.89999700
C       -4.61889100       3.87376800      -0.95004800
C       -5.61214900       4.79842100      -1.30792300
H       -3.06476600       1.99612000      -0.37409400
H       -4.33058800      -2.16473400      -1.35198900
H       -7.16108500      -0.02852700      -3.60782900
H       -8.64529700      -2.52595500       0.26245800
18
Properties=species:S:1:pos:R:3 energy=-1.098712293668443 pbc="T T T"
C       -5.07742200       1.58048300       0.91664700
O       -3.72552700       1.75045000       0.55034700
C       -2.86803200       0.66481400       0.30812700
C       -3.23645100      -0.64063400       0.39786800
C       -2.32001800      -1.66641600       0.14005900
C       -1.01907900      -1.33512100      -0.21133000
N        0.07427900      -2.08825800      -0.51482900
C        1.11965400      -1.25632600      -0.79255900
C        0.72006300       0.03456100      -0.67344000
C        1.45036900       1.32624200      -0.86096600
C        1.74495500       1.87450800       0.54286100
N        2.56764300       0.84059000       1.17701200
C        3.82330100       0.49945600       0.56477900
C        4.67151800      -0.53729900       1.17900600
O        4.13191500       1.12756700      -0.49361900
C       -0.63045900      -0.01576300      -0.30635400
C       -1.56677000       0.95266000      -0.04368900
H        0.14006000      -3.11151400      -0.54096500
39
Properties=species:S:1:pos:R:3 energy=-4.245400037142057 pbc="T T T"
C        2.96960100       3.19676300       2.66510700
C        3.26467800       1.78623200       3.12882300
C        3.04346000       0.82621800       1.98965600
O        3.25555100      -0.38106000       2.22283800
O        2.63131300       1.23835200       0.75550000
C        2.40702900       0.40089700      -0.34027000
C        3.66266600      -0.34815700      -0.70672200
O        3.66084600      -1.14352200      -1.61204500
S        5.18337100      -0.07544300       0.18924800
C        6.52973400      -1.07732100      -0.42890100
F        6.34811800      -2.42958100      -0.22773200
C        2.11214000       1.25103200      -1.59663800
C        1.71874900       2.63416200      -1.10667700
C        0.82372400       0.63741800      -2.17375300
C        0.14197400       0.33446500      -0.89946200
C       -1.06567000      -0.53647600      -0.96774900
C       -2.03549900      -0.31245300      -2.01920600
C       -3.36247900       0.22489600      -1.78830300
F       -3.52119400       1.54031900      -2.20196700
C       -3.74952900       0.11103300      -0.32797700
C       -4.69821000       0.87905800       0.14475700
C       -5.14017800       0.85422400       1.51376600
O       -6.05487100       1.60105000       1.94796100
C       -4.46037900      -0.10488400       2.40652700
C       -3.52603700      -0.84491800       1.88657000
C       -3.03402900      -0.87549000       0.51907400
C       -3.20425000      -2.27981900      -0.05019800
C       -1.59786500      -0.46109800       0.47574000
F       -1.53168800       0.87331200       0.89327400
C       -0.65356400      -1.24371000       1.31762700
O       -0.65882300      -2.58149200       0.86649200
C        0.74436300      -0.68001900       1.22857100
C        1.22168400      -0.47858500      -0.16369400
C        1.42379000      -1.80573800      -0.88943700
H        2.92838900       1.25928300      -2.30809100
H        0.00304900       1.24801700      -0.26796200
H       -0.68953100      -1.61383800      -1.03044100
H       -4.14489600      -0.37504400      -2.31605700
H       -0.94553800      -1.24808200       2.38021300
42
Properties=species:S:1:pos:R:3 energy=-0.2876820724517809 pbc="T T T"
C       -3.38654000       3.64633400      -2.87833100
C       -3.28350600       2.51424300      -1.89292800
C       -2.04842400       2.79205300      -1.02169700
N       -1.37547300       1.54372500      -0.89532300
C       -0.03933300       1.55333300      -0.44981600
C        0.13861300       1.96495100       0.96575100
O       -0.86359200       2.26893300       1.66150300
N        1.42583900       2.02336600       1.55566100
C        1.73637600       2.41724700       2.92385000
C        2.98988500       3.26828500       2.65813600
C        2.47379600       4.57430500       2.08809500
C        3.80477500       3.46856500       3.89775300
C        3.67298600       2.46413500       1.62273500
N        4.94920600       2.34404200       1.24213100
C        5.26354200       1.50271300       0.23265400
C        4.33598400       0.74240100      -0.44677700
C        4.74167900      -0.16155300      -1.55433700
C        5.12751200      -1.51734400      -1.09343500
C        4.25576400      -2.57293400      -0.95209800
C        4.68708500      -3.81864700      -0.51661000
C        6.01056800      -4.04394800      -0.20877600
F        6.44866700      -5.26712500       0.22031100
C        6.89668300      -2.99108300      -0.34651500
C        6.45697500      -1.76187200      -0.77864800
C        2.99895600       0.85888400      -0.05871600
C        2.70701000       1.72457900       0.97399600
C       -2.17732900       0.41601200      -0.58891200
C       -3.20689500       0.68472200       0.49029600
N       -3.96543600      -0.54179000       0.71573500
C       -3.61531800      -1.56791800       1.67462000
C       -4.67193400      -2.60129500       1.55067500
C       -4.81828800      -3.79193800       2.24353300
C       -5.86922500      -4.65744900       2.00820800
C       -6.80598100      -4.30856400       1.03874000
C       -6.64231200      -3.12031700       0.36093500
C       -5.59832000      -2.24938600       0.58724200
C       -5.15694500      -0.96214600       0.06534900
O       -5.75268900      -0.31094600      -0.84092400
C       -3.00140300       0.11316800      -1.84805500
N       -3.10613900       1.29198300      -2.65459200
H       -4.18181300       2.49089400      -1.26535200
H       -1.55500900      -0.42261900      -0.28455100
50
Properties=species:S:1:pos:R:3 energy=-2.0931348688118385 pbc="T T T"
O       -2.59620800      -1.16752600      -0.93775600
C       -2.76465100      -0.08036700      -0.33550300
C       -3.86309800       0.15642100       0.64059100
O       -4.60420200      -1.04431300       0.87169200
C       -5.59011600      -0.93094500       1.85771300
C       -6.85049700      -0.58219600       1.55885800
C       -7.32750900      -0.29013400       0.17873000
C       -6.49789800      -0.40713600      -0.90836200
S       -7.52682700       0.00975200      -2.20367700
C       -8.94182800       0.30724100      -1.30192400
N      -10.25566000       0.73405800      -1.73237100
C      -11.09583300      -0.22578700      -2.39866700
C      -12.57255800       0.09776900      -2.12050600
O      -12.74099300       1.43456000      -2.46112400
C      -12.17481900       2.22109800      -1.44845500
C      -10.66110900       2.07832000      -1.44174000
N       -8.55226900       0.07199200      -0.06493100
C       -7.75633000      -0.49675300       2.61791100
C       -7.42159000      -0.74840500       3.92621000
C       -6.10952700      -1.10907100       4.22898800
F       -5.78953600      -1.35037500       5.52154000
C       -5.21447300      -1.19539100       3.19576300
F       -3.93417400      -1.54475100       3.43639700
N       -1.84282600       0.94385900      -0.61351600
C       -0.71891200       0.74637300      -1.53365600
C        0.03241600       2.10488500      -1.51931700
C        0.37663100       2.45732000      -0.09445200
C        1.19533100       1.41800700       0.55378300
C        2.52580000       1.23495200      -0.08653200
C        3.33157100       0.16525800       0.63290300
N        4.60878200      -0.01255300       0.13380900
C        5.10611500      -0.39910200      -1.09864100
C        4.35915700      -0.72313600      -2.18664900
C        5.00274100      -1.11287200      -3.37945300
C        6.37399300      -1.16681800      -3.44977900
C        7.14868300      -0.84242000      -2.36285900
C        6.50465000      -0.46396000      -1.20550800
C        7.52847600      -0.18005900      -0.20211300
O        7.38621400       0.19360000       0.99967200
N        8.83564700      -0.39721900      -0.77729400
C       10.11056500      -0.22460600      -0.07466500
C        9.96847800      -1.03785500       1.21949000
C       11.16249200      -0.75749400       2.09576400
C       11.14029600       0.66215000       2.51464600
O       11.34582700       0.94197900       3.71633700
N       10.88192500       1.61307800       1.48653700
C       10.33041600       1.21123800       0.23874900
O       10.02321700       2.06914100      -0.60785400
C        8.60885900      -0.80860400      -2.11984400
O        9.51515900      -1.09512700      -2.95893800
40
Properties=species:S:1:pos:R:3 energy=-1.5292413704398238 pbc="T T T"
C       -2.48968000      -2.05610800      -4.28292300
C       -2.81088000      -1.47989900      -2.93188300
C       -1.55614200      -1.41828300      -2.08617200
N       -1.88075300      -0.71776800      -0.86128800
C       -0.66287900      -0.56453100      -0.10207600
C       -0.12277600      -1.84569000       0.41693900
O       -0.75601600      -2.89783900       0.15434500
N        1.05424400      -1.93630300       1.18262200
C        1.63531800      -3.14319600       1.72775800
C        2.22844000      -2.64174400       3.02273300
C        1.10857100      -2.62309300       4.05260600
C        3.37868500      -3.49210800       3.50153400
C        2.64937400      -1.26271500       2.69462500
N        3.53264500      -0.40768600       3.23901200
C        3.69397900       0.81289100       2.69431000
C        2.99083700       1.24261300       1.58895900
C        3.20070700       2.61573000       1.01081700
C        4.27746100       2.49936800       0.00454300
C        4.07079700       2.20123200      -1.32594800
C        5.12153800       2.10604500      -2.22949800
C        6.42390600       2.31136700      -1.81082100
F        7.47757700       2.22468100      -2.67785600
C        6.64176900       2.60702800      -0.49660900
C        5.60311400       2.69954000       0.38897900
C        2.08493700       0.36885000       1.02842400
C        1.92440300      -0.87442100       1.58776600
C       -2.96453400      -1.32260500      -0.15045700
C       -4.24177700      -0.51255700      -0.23230100
N       -4.13303900       0.80726200       0.29973200
C       -3.95199100       0.89919700       1.71228300
C       -4.28150200       2.30128500       2.17934900
O       -4.14949600       3.23445100       1.13086100
C       -5.16575500       3.03164800       0.21255300
C       -5.30274900       1.56177500      -0.12666200
C       -5.40486700       1.44792300      -1.62850300
C       -3.29091600      -2.63821800      -0.87450600
N       -3.77476300      -2.27949000      -2.19247900
H       -3.19153900      -0.42065300      -3.02258400
H       -2.73681500      -1.57074300       0.89512600
H       -6.22943400       1.13276500       0.29322000
40
Properties=species:S:1:pos:R:3 energy=-0.6286711613755805 pbc="T T T"
C       -6.26144900       1.11170500       4.51650300
C       -5.91215400       1.08852500       3.04967900
C       -6.76686900       1.12475000       2.04451200
C       -8.26077800       1.19741500       2.15683800
C       -6.00573200       1.07665200       0.81061800
O       -6.43160900       1.08994600      -0.37022000
N       -4.63052000       1.00845400       1.14716500
C       -3.48072700       0.93217200       0.26066300
C       -3.14524500      -0.51141800      -0.04086700
C       -4.27952500      -1.25531500      -0.71795100
N       -4.07565500      -1.30457900      -2.15805500
C       -3.38385200      -0.11689900      -2.62218500
C       -3.46251000      -0.04316400      -4.13311000
C       -1.96535400      -0.17466000      -2.13643300
N       -1.93196800      -0.55782100      -0.77733600
C       -1.04027800      -1.59594300      -0.43561900
C        0.36392800      -1.16904100      -0.52370900
O        1.21092900      -2.10854800      -0.24860900
N        0.84248100       0.10776800      -0.86224900
C        0.17830900       1.35187900      -1.18107500
C        1.10945500       2.38052900      -0.57305900
C        0.96176900       3.70661300      -1.30389800
C        0.74253100       2.51765900       0.88306300
C        2.43874900       1.78492800      -0.77802100
N        3.69889100       2.29175500      -0.82433500
C        4.76008600       1.47275400      -1.03392400
C        4.62228300       0.11787200      -1.20706200
C        5.81478400      -0.73063400      -1.43620600
C        6.41954900      -1.24396400      -0.19847000
C        5.99062500      -2.42289800       0.36771500
C        6.56619200      -2.90538200       1.53326200
C        7.59362600      -2.21817200       2.16951700
F        8.11455000      -2.73956300       3.30368200
C        8.01996000      -1.03844800       1.59921600
C        7.44654200      -0.54763400       0.42867900
C        3.34345800      -0.38856100      -1.15867700
C        2.25113000       0.43041300      -0.94633000
C       -4.51502400       1.02373000       2.58307500
H       -3.03233200      -1.00964300       0.96387800
H       -3.90824500       0.75458800      -2.15066500
43
Properties=species:S:1:pos:R:3 energy=-1.5292413704398238 pbc="T T T"
C      -10.68093400       1.37004700      -2.18044000
O       -9.77309900       1.82306800      -1.19395800
C       -8.52886300       1.20905200      -1.13415400
C       -8.16436700       0.18700500      -1.99790100
C       -6.93508200      -0.42881100      -1.94841900
F       -6.67570800      -1.42821100      -2.84781600
C       -6.00933500      -0.03563500      -1.01444000
C       -6.32729200       0.97447500      -0.13691700
C       -5.32863200       1.42804800       0.90143400
C       -6.04322700       2.19450200       2.00106800
O       -5.07362400       2.48367000       2.96920400
N       -4.77348300       0.22082500       1.48124400
C       -3.37815000       0.01810400       1.42270200
O       -2.65472300       0.87102200       0.87948200
C       -2.79542100      -1.20329300       2.00679900
C       -3.36093500      -2.43844800       1.31962200
N       -1.35416700      -1.15451800       1.80829200
C       -0.38801800      -1.17363900       2.87244700
C        0.94183000      -1.10914700       2.23485300
C        2.20333700      -1.09816000       2.78961100
C        3.33050900      -1.03239100       1.99321000
C        3.19669900      -0.97627000       0.61156100
C        4.40783600      -0.90772300      -0.19584700
N        5.44312800      -0.10684400       0.07405800
C        6.55450100      -0.05838300      -0.68549900
N        7.59183600       0.83486100      -0.29766300
C        8.79974200       0.97316600      -1.01240600
C        9.20165300       0.32380600      -2.14951700
C       10.45774100       0.81071400      -2.44909600
N       10.77880700       1.71997900      -1.51073400
N        9.78195600       1.81655900      -0.64835400
C        9.83032400       2.72671100       0.49290200
N        6.64140700      -0.85250400      -1.77691100
C        5.63731400      -1.68497200      -2.11075600
C        4.49147600      -1.71892900      -1.30694000
Cl       3.15578400      -2.78140000      -1.69293800
C        1.92961400      -0.98847600       0.08143800
C        0.78272700      -1.05442100       0.86916900
C       -0.64204800      -1.08168200       0.58395500
O       -1.16339900      -1.04666000      -0.55921500
C       -7.56937200       1.57460400      -0.21003600
H       -4.54957600       2.05654100       0.47152400
H       -2.98876600      -1.25624200       3.10511900
44
Properties=species:S:1:pos:R:3 energy=-1.3216308477941685 pbc="T T T"
C        2.90414200      -2.14506700      -2.99911600
C        3.29620700      -1.15815000      -1.91256900
C        2.31764800      -1.24727500      -0.78652700
N        2.10204600       0.01400200      -0.13320800
C        1.43595400      -0.02390000       1.11025100
C        0.01877300      -0.38299100       1.11541200
O       -0.55571300      -0.43065000       2.25641500
N       -0.75868200      -0.67572500      -0.01130600
C       -0.35430100      -0.65380200      -1.42000300
C       -1.17750800      -1.77674000      -2.02623100
C       -1.49607300      -1.41372400      -3.45610800
C       -0.50091000      -3.10524300      -1.90306300
C       -2.43745900      -1.71234900      -1.22390700
N       -3.69981900      -2.16063400      -1.46082400
C       -4.65000200      -1.95059600      -0.53150600
C       -6.05949000      -2.44165200      -0.77004000
O       -6.10768300      -3.06637600      -2.01171400
C       -4.38425400      -1.29160300       0.66068300
C       -5.50485500      -1.11076400       1.62248900
C       -6.44706100      -0.03209400       1.21681400
C       -7.53833400      -0.27611000       0.40919200
C       -8.42703600       0.72658000       0.02663200
C       -8.23325600       2.01887300       0.45593100
F       -9.11585600       2.97670500       0.06761900
C       -7.14655000       2.28003000       1.26420700
C       -6.26501900       1.27637000       1.64164600
C       -3.11278500      -0.83080700       0.91820900
C       -2.14191700      -1.05924000      -0.05906700
C        3.28540100       0.85145400      -0.14382900
C        4.44341100       0.20368900       0.56008300
N        5.61590900       1.05595900       0.53858400
C        6.69215500       0.34608700       1.20348200
C        6.20203200      -0.49544400       2.36513000
C        7.86827300       1.19780800       1.54663900
O        7.60862400       2.56319000       1.40937800
C        6.41399500       2.80870000       2.06325300
C        5.27114800       2.28237500       1.22716200
C        4.95061100       3.32509600       0.17679900
C        3.67265300       1.19775000      -1.57025500
N        3.21126600       0.16981100      -2.49369800
H        4.33794100      -1.42493700      -1.62291800
H        3.03815000       1.79064700       0.38114600
H        7.05457700      -0.40146600       0.43549200
H        4.37364700       2.16738200       1.86324500
41
Properties=species:S:1:pos:R:3 energy=-3.912023005428146 pbc="T T T"
H       -0.13516700      -4.93612900      -0.10038700
C       -0.02233300      -3.83923200       0.15918400
H       -0.98519000      -3.38744700       0.16050800
O        0.40139000      -3.88172300       1.52029800
C        1.06050200      -3.21603100      -0.67902100
C        1.55965200      -1.82890500      -0.43179600
H        2.47365900      -1.73368100      -1.16038000
H        2.19899800      -1.93045700       0.53059700
O        0.89537100      -0.75066300      -0.51571100
C       -0.11957900      -0.09194600      -0.13074600
C       -1.43956900      -0.76603100      -0.60672900
C       -2.56755900      -0.72848600       0.11219500
C       -3.70161000      -1.34919400      -0.36146100
C       -3.72141300      -2.01962500      -1.57677500
Cl      -5.17394300      -2.81397400      -2.16223200
C       -2.54035300      -2.02799000      -2.27563300
C       -1.39312500      -1.41132800      -1.80930000
C       -0.20283000       1.18037600      -0.90316300
C        0.11365500       1.49794300      -2.21807400
F        0.73714300       0.56920400      -2.98680600
C       -0.20274100       2.74004800      -2.72148100
C       -0.82890000       3.68486800      -1.94163500
C       -1.20058900       5.03645200      -2.44830700
C       -2.60147800       5.37067100      -2.05801700
C       -0.18682800       6.00051600      -1.90519200
O       -1.14496400       5.06460200      -3.83794900
C       -1.14389400       3.39190200      -0.64250500
C       -0.81763800       2.12145900      -0.14718600
C       -0.90910600       1.60018900       1.19411200
O       -1.45203700       2.20585100       2.20024500
N       -0.30642100       0.31229200       1.21281100
C       -0.00717700      -0.32576500       2.48468100
C        1.24757700       0.12338300       3.09928400
C        2.36819000      -0.66933600       3.04552200
C        3.57811600      -0.31403000       3.60977400
C        3.65531100       0.89853100       4.25585100
Cl       5.18136500       1.38774500       4.99698900
C        2.52448100       1.66255600       4.29163800
N        1.35760100       1.31336700       3.74104800
C        1.25828300      -3.87502000      -2.00929600
C        2.19315100      -4.26496400      -0.98495400
52
Properties=species:S:1:pos:R:3 energy=-3.563833965139712 pbc="T T T"
O       -2.80009100       1.35725800      -1.09818200
C       -3.38989000       1.60754700      -0.03350700
C       -4.73551300       2.03926200       0.21357900
O       -5.67610400       2.18265200      -0.74268900
C       -6.19312200       1.22793400      -1.58450400
C       -7.24766800       0.49244800      -1.14677200
C       -7.85799100       0.71862300       0.19173900
C       -7.38888000       1.72257300       1.00780700
S       -8.39618700       1.59524900       2.36728800
C       -9.36114800       0.27651300       1.83367500
N      -10.44513400      -0.36984400       2.51264900
C      -10.83851100       0.07033200       3.81796000
C      -12.33522600       0.36011900       3.74533000
O      -13.02121200      -0.68526400       3.19179000
C      -12.62402300      -1.08549300       1.94049900
C      -11.13542800      -1.45023700       1.87689200
N       -8.85133700       0.01584900       0.64732500
C       -7.78514700      -0.47491500      -1.96760700
C       -7.24518700      -0.68835000      -3.23438000
C       -6.18128700       0.06191300      -3.66673400
F       -5.68998800      -0.17922900      -4.90189700
C       -5.63475300       1.03626500      -2.84879800
F       -4.61439100       1.77498000      -3.32484000
N       -2.54818000       1.42098500       1.14534100
C       -1.17773600       0.99818700       1.00677000
C       -1.05013200      -0.33300600       0.29019100
O        0.27805400      -0.71790900       0.17041600
C        0.40119800      -1.89650600      -0.52281700
C        1.81308700      -2.35362300      -0.67933700
O        2.48734600      -2.59646000       0.50018400
C        2.56336900      -1.53464600       1.31282300
C        3.29848100      -0.32960200       0.95845700
N        4.65055000      -0.40716500       0.72845500
C        5.38817200      -0.89479000      -0.33320500
C        4.77828000      -1.30665100      -1.49182900
C        5.53644800      -1.74916200      -2.53828900
C        6.90226600      -1.78254800      -2.43205400
C        7.55319900      -1.37579000      -1.28063600
C        6.79732700      -0.93127200      -0.22882000
C        7.67224400      -0.56286100       0.87136700
O        7.31633500      -0.11580300       1.98913900
N        9.00656400      -0.80324100       0.44404600
C       10.18352200      -0.56579000       1.26939900
C       10.16098500       0.79087600       1.91798900
C       10.30441200       1.93816100       0.97328900
C       11.27811100       1.67889000      -0.10570800
O       11.76621800       2.66288600      -0.71734000
N       11.68699900       0.37182100      -0.48340700
C       11.39183900      -0.68195500       0.42106800
O       12.15168100      -1.70611600       0.50036200
C        8.95245200      -1.30308100      -0.87818400
O        9.90512500      -1.63473900      -1.60429600
24
Properties=species:S:1:pos:R:3 energy=1.0986122886681098 pbc="T T T"
C        6.39735700       0.29469500      -1.73096800
C        6.31116700      -0.88194500      -0.79445900
S        5.54101600      -0.42648400       0.74554500
O        6.38467000       0.59968100       1.48138700
O        5.47520000      -1.67057900       1.58721100
C        3.93097400       0.16190000       0.49113000
C        3.63412800       1.50095400       0.26603600
C        2.32715900       1.91436500       0.06880400
C        1.28701800       0.99618900       0.09242800
O       -0.01255500       1.09490100      -0.05845900
C       -0.60009100      -0.07260500       0.04883700
C       -2.02921600      -0.37514700      -0.05757100
C       -2.49291100      -1.66489800       0.08041100
C       -3.85870200      -1.95658200      -0.02093500
C       -4.78032500      -0.96094300      -0.26196200
C       -6.13581700      -1.25547900      -0.36182200
C       -7.07279100      -0.27394100      -0.60243100
C       -6.61189800       1.01703400      -0.74088000
C       -5.26490300       1.30384800      -0.64079300
C       -4.31662400       0.33146600      -0.40032400
C       -2.96382100       0.60518100      -0.29774400
N        0.38335700      -0.95688400       0.28024500
C        1.57788700      -0.33914000       0.31635200
C        2.88972100      -0.72398000       0.50996100
47
Properties=species:S:1:pos:R:3 energy=-1.2612488721456663 pbc="T T T"
C       -1.91836600      -2.51140700       0.06405500
C       -1.33753700      -1.27767500       0.76856400
C       -2.23112400      -0.14347800       0.48315300
O       -1.81896100       0.82561700      -0.18007400
N       -3.55585200      -0.15752000       0.96316200
C       -4.43842900       0.94842700       0.68885300
C       -4.83902000       1.58619000       2.00064600
O       -5.49822500       0.66374300       2.82062900
C       -5.61338600       0.40642800      -0.04062500
C       -5.32813800      -0.49178000      -1.07184800
C       -6.31001500      -1.07042400      -1.82894500
C       -7.61974700      -0.72854700      -1.53202800
C       -7.84713900       0.15060400      -0.51856000
N       -9.18333700       0.50473300      -0.20937800
C      -10.31763100      -0.05297600      -0.95370000
C      -11.56295100       0.43122500      -0.19997800
N      -11.61318700       1.86892000      -0.38809300
C      -11.45808200       2.12416700      -1.80778100
C      -10.49190000       2.46086100       0.30203700
C       -9.53321400       1.43656700       0.85580600
N       -6.87529400       0.71319600       0.21890200
N       -0.05736400      -1.03627300       0.18342700
C        0.17326700      -0.69450300      -1.20262700
C        1.64235700      -0.53849500      -1.35401600
C        2.41734100      -0.22479400      -2.42722800
C        3.80704400      -0.13295000      -2.33128800
C        4.44672200      -0.36010400      -1.13059000
C        5.90022000      -0.25445200      -1.07140100
N        6.54467600       0.39130400      -0.08362800
C        7.89481500       0.48820800      -0.03066600
N        8.54321700       1.17636900       1.02489700
C        9.98231500       1.24484000       1.02543300
C       10.54060100       1.99401000       2.18583700
C       11.18971800       1.13855600       3.22359800
O       11.98749000       0.16199100       2.66155000
C       11.15178000      -0.74262800       2.00841700
C       10.64394100      -0.07024800       0.75823700
N        8.59106200      -0.08388800      -1.00207800
C        8.05339100      -0.75591500      -2.04014300
C        6.66069600      -0.83747800      -2.06524100
Cl       5.82943100      -1.68114100      -3.35654400
C        3.66397200      -0.67840400      -0.04037700
C        2.27162100      -0.76743300      -0.14932600
C        1.21659900      -1.07673400       0.80636900
O        1.47506000      -1.34056300       2.03005300
H       -1.28585900      -1.52497200       1.84866600
H       -3.89257900       1.69958900       0.09387200
20
Properties=species:S:1:pos:R:3 energy=-0.18632957819149348 pbc="T T T"
C        5.16366400       0.27535300       2.07897400
C        4.37925300       0.26907500       0.78214800
C        3.09738500       0.98528100       1.01280300
O        2.79452900       1.48195500       2.12647700
N        2.17390300       1.11982100      -0.05471800
C        0.93097700       1.82066400       0.18970800
C        0.12461900       1.83309100      -1.08225500
C       -0.16339200       0.45162000      -1.51143500
C       -0.96525700       0.41871800      -2.83222700
C       -1.13026800      -1.12408200      -2.87702800
C       -1.63219500      -1.30278300      -1.45474000
C       -2.51061600      -2.19620700      -0.89464600
C       -2.83965600      -2.14161700       0.44219000
C       -2.28662400      -1.17353900       1.26357300
C       -1.40303200      -0.26997600       0.71709700
C       -1.07527600      -0.33618800      -0.64542000
C       -0.98468300       0.63852800       1.82885700
C       -1.95188300       0.33197700       2.94714300
O       -2.48153000      -0.94259300       2.62670000
H        0.76008100      -0.13909900      -1.76420800
