41
Properties=species:S:1:pos:R:3 energy=0.1384047171537122 pbc="T T T"
C      -10.10923900       0.19534800       1.17571300
O       -9.60985100       1.50032900       1.01728600
C       -8.26415900       1.73973900       0.79937100
C       -7.73120700       2.99169900       0.63926800
C       -6.37180700       3.16043500       0.42379700
F       -5.89641000       4.41913100       0.27193100
C       -5.52634300       2.05415300       0.36703400
C       -6.06099900       0.79729600       0.52770600
C       -5.16959300      -0.38092300       0.46861300
C       -5.99899400      -1.63217400       0.28538100
O       -5.16680800      -2.73497600       0.17517800
N       -4.28373600      -0.19449500      -0.67503700
C       -2.88916700      -0.19243500      -0.46456200
O       -2.45825000      -0.35408100       0.72023300
C       -1.93218500      -0.01108600      -1.56168600
C       -2.15440700       1.27722100      -2.32649900
N       -0.56624300      -0.05285000      -1.05369400
C        0.01172100       0.86956700      -0.08340300
C        1.40486000       0.42341200       0.11043500
C        2.39258800       0.94004200       0.91713100
C        3.66285700       0.36852800       0.96153700
C        3.96323100      -0.73642800       0.19281000
C        5.30864800      -1.33769600       0.24310600
N        6.41703000      -0.58787400       0.20402500
C        7.61288500      -1.16465500       0.25147300
N        8.81330400      -0.38936800       0.21152800
C        8.67550800       1.04851700       0.11737300
C        7.90661200       1.57102800       1.31410600
O        9.01282100       2.37984700       1.59933900
C        9.88474400       1.72922200       0.72362200
N        7.72799800      -2.48555000       0.33787100
C        6.64158500      -3.25863000       0.37864200
C        5.38080500      -2.71109800       0.33253300
Cl       3.98275000      -3.74939300       0.38780900
C        2.96221400      -1.24161200      -0.60995800
C        1.69537900      -0.68236800      -0.66286100
C        0.46502200      -0.97093400      -1.38250600
O        0.32878200      -1.91375900      -2.19406600
C       -7.39378000       0.65658700       0.73738100
H       -4.58228800      -0.50293100       1.40501100
H       -2.08587600      -0.83678400      -2.28607700
36
Properties=species:S:1:pos:R:3 energy=0.0133402438387857 pbc="T T T"
C        2.93126900      -0.75733600      -5.20191900
C        3.33000900      -1.50447000      -3.96904500
C        4.73134200      -1.18412400      -3.50721000
O        3.24537600      -2.85181600      -4.23698400
C        2.35111400      -1.16022300      -2.87451000
C        0.99812700      -1.07227800      -3.15188400
C        0.03420500      -0.81547700      -2.20920500
C        0.43688600      -0.63145700      -0.87404500
C        1.75987700      -0.70992500      -0.57772500
C        2.74851300      -0.97685300      -1.57097300
C        1.92109000      -0.42846500       0.83109600
O        3.01430900      -0.41074100       1.47654500
N        0.64799800      -0.16273700       1.38914800
C        0.44794100       0.28981200       2.75678000
C        0.54455600       1.76697900       2.86437700
C        1.85716800       2.26584700       2.76421400
C        2.11340900       3.63877200       2.86742500
C        1.07310800       4.53267400       3.07064000
Cl       1.43784200       6.24656900       3.20429600
C       -0.21608700       4.02474800       3.16663900
C       -0.46948600       2.64401400       3.05746900
C       -0.32260700      -0.41789600       0.37786000
O       -0.92081300      -1.69237000       0.61395900
C       -1.75198300      -2.05560900      -0.44836200
C       -2.32993300      -3.43755400      -0.16562400
C       -1.25171000      -4.49327100      -0.01280600
O       -1.76411900      -5.75731600       0.25099000
C       -3.52989900      -3.90969000      -0.91559400
C       -3.62070800      -3.57012500       0.54081700
C       -1.35686600       0.62666700       0.22197900
C       -1.13253200       1.90437100      -0.15516800
C       -2.18786900       2.78672600      -0.27780000
C       -3.50845700       2.40719100      -0.01428800
Cl      -4.84136300       3.51339600      -0.15260900
C       -3.74763000       1.10732700       0.37545800
C       -2.67207700       0.24464000       0.48606100
41
Properties=species:S:1:pos:R:3 energy=0.0027793772774109 pbc="T T T"
H       -0.97274300      -3.71510800      -3.55762600
C       -0.85073200      -2.73753800      -2.98134300
H        0.14172200      -2.35508100      -3.28448600
O       -1.92513600      -1.96788700      -3.43462800
C       -1.00082300      -3.08353700      -1.54187900
C       -1.08925900      -2.01678200      -0.47366600
H       -1.94467700      -1.38290200      -0.82349300
H       -1.26235100      -2.52384100       0.48793000
O       -0.01814800      -1.18453000      -0.36432500
C       -0.02180500      -0.23718500       0.60799900
C       -0.13058800      -0.82909100       1.98829800
C       -1.36161000      -1.11848100       2.52293900
C       -1.49054700      -1.66154000       3.76476800
C       -0.38300900      -1.94273200       4.53093900
Cl      -0.55884400      -2.65224100       6.14210900
C        0.88943200      -1.65912800       4.01343100
C        0.98610200      -1.10574000       2.74857300
C       -0.99240300       0.88136300       0.46428700
C       -2.37086400       0.95848600       0.53090900
F       -3.18207600      -0.07459800       0.85487400
C       -3.00920200       2.18125100       0.28101200
C       -2.33135700       3.32947400      -0.03136400
C       -3.02507300       4.62824400      -0.30750400
C       -2.05219400       5.63810700      -0.83195000
C       -3.64865100       5.08961300       0.99396200
O       -4.05027300       4.34199400      -1.22549600
C       -0.95292700       3.25599600      -0.09570600
C       -0.32706200       2.04460800       0.15318700
C        1.10979000       1.80702800       0.21995000
O        2.02556900       2.65047500       0.00403700
N        1.24831000       0.43769700       0.58042800
C        2.55297100      -0.09910400       0.94020600
C        3.49143200       0.12838600      -0.18100700
C        4.59194200       0.97059700       0.06957400
C        5.47796200       1.26873000      -0.92272700
C        5.27667500       0.72616500      -2.17772500
Cl       6.41869500       1.13202000      -3.47176000
C        4.21208900      -0.09141200      -2.41474900
N        3.34487900      -0.36510600      -1.39925500
C       -0.69566200      -4.50825500      -1.06982700
C       -2.11955700      -4.15841400      -1.30889400
38
Properties=species:S:1:pos:R:3 energy=0.9999999999999998 pbc="T T T"
C        4.29960000      -1.53248600       2.78373600
C        3.06032100      -2.47242900       2.90985200
C        3.46228100      -3.85809300       2.56917700
O        2.61207100      -2.28233900       4.20692400
C        2.05192400      -1.88073400       1.97760700
C        1.22994700      -0.85139900       2.47527200
C        0.38424600      -0.14115400       1.62530400
F       -0.45483800       0.82123700       2.01937600
C        0.38246700      -0.48280800       0.30431300
C        1.16432700      -1.50450400      -0.19006400
C        2.01904700      -2.22174800       0.64569700
C        0.68397800      -1.78408400      -1.55925900
O        1.07782900      -2.61655400      -2.40801600
N       -0.42572400      -0.86415800      -1.76092300
C       -1.60670100      -1.05533200      -2.55067300
C       -2.69584400      -1.71447600      -1.76780400
C       -2.51380500      -1.83315000      -0.42346400
C       -3.41931400      -2.44357700       0.38441300
C       -4.58174500      -2.96587000      -0.17572000
Cl      -5.76212100      -3.76712600       0.83008100
C       -4.74584400      -2.83000200      -1.54499600
N       -3.80804800      -2.21374700      -2.31175300
C        0.02360200       0.27503700      -0.93962600
O        1.30240300       0.61309000      -1.42874400
C        2.27005400       1.15580400      -0.93209900
C        2.65240700       2.40494300      -0.31263600
C        2.11144800       2.98735900       0.96646900
N        2.11087800       2.21599900       2.12802300
O        1.66742400       4.15257200       1.04527900
C        4.25014100       2.35480800      -0.00981200
C        3.69096700       3.24119100      -1.03046400
C       -0.82524800       1.40974700      -0.91178500
C       -0.42402400       2.49422500      -1.73656400
C       -1.11211500       3.65416100      -1.85301700
C       -2.26556700       3.82305400      -1.15629900
Cl      -3.19669600       5.31382100      -1.29670100
C       -2.69387200       2.77657400      -0.33537600
C       -1.97585700       1.62214600      -0.23573000
45
Properties=species:S:1:pos:R:3 energy=0.0744858769046205 pbc="T T T"
C      -10.37969800       3.60616500      -0.68590800
O       -9.35505700       4.25846500       0.00419000
C       -8.04998000       3.83860300       0.08400600
C       -7.16913600       4.62681300       0.82260500
C       -5.83684600       4.29660100       0.96689900
F       -5.00440200       5.06142500       1.67775100
C       -5.39982300       3.14698700       0.34900200
C       -6.22173600       2.33748400      -0.38734300
C       -5.71042000       1.09410900      -1.04615100
C       -6.70074600       0.65299200      -2.07884900
O       -6.20418500      -0.48460800      -2.73031100
N       -4.45727600       1.40663400      -1.70112700
C       -3.26558100       0.76468900      -1.33641000
O       -3.25431700      -0.09834800      -0.43138700
C       -2.01623700       1.13417600      -2.05052900
C       -1.79378000       2.61415700      -1.90096900
N       -0.87662400       0.36730300      -1.52504000
C       -0.01116800      -0.52072600      -2.27115400
C        0.97581000      -1.04146200      -1.29705300
C        2.02817000      -1.91802700      -1.46042100
C        2.82155500      -2.26009000      -0.38854100
C        2.62039800      -1.76207000       0.88125400
C        3.48547100      -2.14995900       1.99241800
N        4.82097100      -2.18229700       1.84193000
C        5.68707500      -2.52175400       2.79646900
N        7.09421000      -2.52787400       2.54409900
C        7.61031900      -2.17443700       1.27459800
C        8.97481100      -2.19635400       1.08845200
C        9.55781300      -1.86515800      -0.12066000
N        8.73622400      -1.51405500      -1.12925100
C        7.40312900      -1.46913400      -1.02507300
O        6.66390000      -1.09343900      -2.13091000
C        7.27349700      -0.76342100      -3.34314900
C        6.83861800      -1.80446100       0.19418900
N        5.18010400      -2.85441300       3.99327600
C        3.85809000      -2.84347500       4.21182500
C        2.97520000      -2.49384900       3.22679600
Cl       1.24230100      -2.45423700       3.43044500
C        1.56519100      -0.88790600       1.02699000
C        0.74980600      -0.52772100      -0.04245600
C       -0.40428800       0.34974500      -0.18479700
O       -0.89372800       0.99499300       0.78028400
C       -7.54435400       2.70879800      -0.50288500
H       -5.51943200       0.30323800      -0.28621600
H       -2.09384600       0.90750200      -3.13088800
42
Properties=species:S:1:pos:R:3 energy=0.1356365127494989 pbc="T T T"
C        3.24166900      -1.28133600       4.13068900
O        3.12721200      -1.15463800       2.73516500
C        4.14612800      -0.54437600       2.03103300
C        5.26425200      -0.05990800       2.65729500
C        6.28674000       0.54960400       1.97254800
F        7.37224900       1.01258300       2.63598400
C        6.16534500       0.66812300       0.61201800
C        5.04763300       0.18974500      -0.05872100
C        4.92721400       0.32326800      -1.52893500
C        5.24307200      -0.97728700      -2.24592000
O        6.51424600      -1.36688400      -1.82728000
N        3.61316500       0.77977500      -1.92505900
C        3.39227800       1.99593100      -2.61860000
O        4.39575600       2.70141700      -2.89609300
C        2.02258100       2.43110900      -3.00914600
C        1.92680500       2.47224900      -4.51343500
N        1.07878800       1.41174400      -2.55227100
C        1.08751900       0.01319400      -2.93206200
C       -0.04376400      -0.61671400      -2.22720100
C       -0.49827000      -1.90314000      -2.21996100
C       -1.59094400      -2.26793700      -1.47405500
C       -2.27577100      -1.35404000      -0.70143300
C       -3.44475500      -1.77779300       0.08755400
C       -3.83780200      -3.09534600       0.03859200
C       -4.94635500      -3.51732800       0.78139400
N       -5.61887500      -2.62466300       1.53920100
C       -5.22192900      -1.34232100       1.57573700
N       -5.87358200      -0.33977900       2.34695500
C       -7.02893500      -0.60897500       3.16689700
C       -7.43476800       0.70372200       3.83188900
C       -7.87724500       1.62959000       2.71031700
O       -7.41108200       1.20079400       1.48806800
C       -8.01467100       0.03805800       1.03288500
C       -8.17165500      -0.94365600       2.20028600
N       -4.14025800      -0.93237200       0.85046600
C       -1.83377700      -0.05167100      -0.69475700
C       -0.71917700       0.30632900      -1.45940900
C       -0.01715200       1.57321200      -1.66313700
O       -0.33485300       2.66278000      -1.12701200
C        4.03069500      -0.41959000       0.64600400
H        5.65013900       1.10303100      -1.87806500
H        1.80213400       3.41349500      -2.57722100
38
Properties=species:S:1:pos:R:3 energy=0.9999999999999998 pbc="T T T"
C        1.47386400       6.08777000       0.79550900
C        0.23002500       5.81730000      -0.03132800
C        0.57728200       6.30309100      -1.44267500
O       -0.86314200       6.53059800       0.39496200
C       -0.03017400       4.36793300      -0.06183100
C       -1.03506700       3.78704100       0.69152800
C       -1.28159800       2.43363000       0.66034100
F       -2.26023500       1.88068300       1.40396500
C       -0.50279800       1.58561200      -0.15732900
C        0.46627900       2.17516400      -0.87882900
C        0.71491100       3.54849300      -0.84581700
C        1.19656400       1.16007500      -1.57369200
O        2.17638200       1.32181100      -2.36312100
N        0.64960300      -0.08597100      -1.23965200
C        1.20205500      -1.37634300      -1.59458000
C        2.33346800      -1.72700700      -0.67137900
C        2.66459400      -1.02214000       0.45254500
C        3.75028700      -1.40747100       1.22047000
C        4.52556500      -2.51548400       0.85463200
Cl       5.90552600      -2.94228200       1.84076700
C        4.15199400      -3.20152500      -0.29361300
N        3.08999000      -2.80390000      -1.01651900
C       -0.60190000       0.14429100      -0.46050500
O       -1.65351000      -0.01004300      -1.35708300
C       -2.16291800      -1.20374800      -1.64317900
C       -3.12380700      -1.78604900      -0.60768300
C       -3.66131000      -3.15347500      -0.93621500
N       -3.22496500      -3.76242300      -2.16122100
O       -4.44995700      -3.74499600      -0.19575700
C       -3.45359000      -1.08052500       0.62911800
C       -4.38762700      -0.83845000      -0.49957700
C       -0.52681900      -0.76736100       0.66390500
C       -0.41390100      -2.14650600       0.37650500
C       -0.28268900      -3.09426400       1.35206800
C       -0.25504800      -2.73695700       2.66942100
Cl      -0.07559800      -3.92448400       3.96136700
C       -0.36363700      -1.39527100       2.98004900
C       -0.49809900      -0.41681900       1.99146700
38
Properties=species:S:1:pos:R:3 energy=0.1745414577797966 pbc="T T T"
C       -2.88224200      -4.88363900       1.76905000
C       -3.31319500      -4.36320800       0.41079200
C       -2.81302500      -5.29823500      -0.69476900
O       -4.68227000      -4.29581300       0.29299000
C       -2.68517000      -3.03385700       0.11553100
C       -3.24913300      -2.12709000      -0.72702600
C       -2.61065400      -0.90877400      -0.92078400
F       -3.25461000      -0.00525800      -1.74611500
C       -1.44699500      -0.64074600      -0.27723800
C       -0.87314800      -1.58400800       0.59191600
C       -1.49027800      -2.78330500       0.79294300
C        0.42177100      -1.02952900       1.06105700
O        1.12060100      -1.72237700       1.87427000
N        0.63103900       0.22515100       0.47185100
C        1.79273800       1.06976500       0.59413600
C        3.08663200       0.34555700       0.36548700
C        3.10002000      -0.97621400       0.55316400
C        4.19038100      -1.73671700       0.48842800
C        5.41783300      -1.09326100       0.19900300
C        6.50198800      -1.91555800       0.22360700
N        7.54017600      -2.71180900       0.22547800
C        5.39434100       0.26858000       0.00434600
N        4.22498800       0.99038800       0.08805700
C       -0.59604500       0.56200200      -0.20178900
O       -1.28509100       1.35961200       0.78368000
C       -0.67449100       2.56326400       1.00025400
C       -1.46507600       3.24130100       2.12461500
C       -1.07114300       4.59932600       2.59363400
O       -1.96127600       4.97947000       3.60163100
C       -2.87786100       2.74546500       2.42406600
C       -1.78233200       2.26893700       3.31826100
C       -0.48493900       1.26859600      -1.45937400
C        0.40362800       2.38902300      -1.58422100
C        0.46066600       3.07147200      -2.77027100
C       -0.29211700       2.74847900      -3.87811700
Cl      -0.16756300       3.73086600      -5.35177000
C       -1.14157700       1.67947900      -3.78137500
C       -1.18657200       1.00266400      -2.57539900
43
Properties=species:S:1:pos:R:3 energy=0.0522568620201855 pbc="T T T"
C       -2.06426600      -3.74780900       1.34389900
O       -2.32569300      -2.35671500       1.27493800
C       -3.59549200      -1.85058100       1.05657900
C       -4.69991200      -2.66234800       0.89000900
C       -5.94398000      -2.12561500       0.67531300
F       -7.02682600      -2.95143800       0.51255600
C       -6.09495400      -0.76253600       0.62504900
C       -5.01469700       0.06692300       0.78731200
C       -5.09555600       1.54782600       0.74637500
C       -4.94237600       2.04751800       2.18241200
O       -6.01757900       1.56882100       2.91385700
N       -3.99734200       2.01668200      -0.07242700
C       -4.27344900       2.79425900      -1.22043000
O       -5.47196400       3.05168800      -1.48967800
C       -3.15433200       3.27366700      -2.05728200
C       -3.11532700       4.79135400      -2.11284400
N       -1.91818400       2.81006400      -1.48005100
C       -1.41234400       3.12105400      -0.17653100
C       -0.10997300       2.40165800      -0.06075900
C        0.79494000       2.34419200       0.96267100
C        1.95733100       1.59683000       0.84157600
C        2.25595200       0.88291800      -0.30203800
C        3.48755300       0.10082800      -0.40951000
N        3.91502100      -0.70264800       0.59455000
C        5.04809900      -1.42556100       0.50233100
N        5.50334000      -2.27055300       1.55073700
C        6.70676000      -3.01020300       1.39771000
C        7.54643400      -3.01701000       0.29403400
N        8.58884700      -3.84461500       0.52738300
N        8.40760800      -4.33946200       1.73715600
C        9.33533400      -5.28406900       2.35210400
N        7.28446600      -3.85052600       2.27414600
N        5.76691000      -1.33619100      -0.62875100
C        5.41942000      -0.56548500      -1.67505900
C        4.24966800       0.17030800      -1.55926100
Cl       3.68037700       1.21444900      -2.84569400
C        1.32689100       0.95718200      -1.32023800
C        0.16212300       1.69833400      -1.21539200
C       -0.96909400       1.95515800      -2.10047600
O       -1.04100500       1.44987300      -3.26860700
C       -3.78039900      -0.50380500       1.00103600
H       -6.08293200       1.87882000       0.34473000
H       -3.28939600       2.86676500      -3.09570100
43
Properties=species:S:1:pos:R:3 energy=0.0355809318743228 pbc="T T T"
C        9.85357600       0.20521300       2.32312400
O        9.21780800      -1.04991300       2.40310200
C        7.94087700      -1.22734200       1.89743500
C        7.34974800      -2.46639300       1.99228200
C        6.07469000      -2.62738500       1.48275800
F        5.40258900      -3.80092300       1.52371300
C        5.42775000      -1.54802400       0.89412900
C        6.00856300      -0.31096800       0.79536100
C        5.33998400       0.85761600       0.17196200
C        6.37971600       1.94310000      -0.09776000
O        7.33698200       1.38979200      -0.94692000
N        4.72520100       0.43177700      -1.06803200
C        3.33454800       0.66243000      -1.24010300
O        2.71032900       1.22282700      -0.30981900
C        2.61040500       0.26545500      -2.47003600
C        2.76535700      -1.22201100      -2.70982500
N        1.22223400       0.64057100      -2.32231200
C        0.54276700       1.59309700      -3.15553500
C       -0.85482300       1.61951500      -2.59302700
C       -1.98441600       2.32924400      -2.94905900
C       -3.18162100       2.19230100      -2.27931100
C       -3.30567500       1.32873200      -1.20966600
C       -4.57812800       1.18074000      -0.49493400
N       -5.00604400      -0.04613400      -0.19321300
C       -6.18594800      -0.28096400       0.47461000
N       -6.57975200      -1.59140200       0.76173000
C       -7.67646200      -2.11727100       1.39850400
C       -7.85715100      -3.50878000       1.57144200
C       -9.03512200      -3.71317400       2.23661900
N       -9.56209800      -2.52300700       2.46738100
N       -8.74843900      -1.56971600       1.96558600
C       -9.03441400      -0.15373300       2.05065700
N       -6.86713200       0.82563300       0.79539800
C       -6.49764000       2.08063400       0.52467200
C       -5.30498100       2.29759900      -0.14930600
Cl      -4.75941700       3.91926100      -0.53697500
C       -2.18318900       0.61736200      -0.84868300
C       -0.96380600       0.75328900      -1.52665200
C        0.33890400       0.12925400      -1.34502500
O        0.61433500      -0.71186600      -0.47147500
C        7.28698100      -0.17043300       1.31216000
H        4.59422400       1.33449400       0.85876600
H        3.08868900       0.81950200      -3.32567800
42
Properties=species:S:1:pos:R:3 energy=0.0133402438387857 pbc="T T T"
C       -4.60866700      -0.09138400      -3.56866900
O       -6.01025000       0.14505700      -3.54629600
C       -6.67316500       0.35542500      -2.36142900
C       -8.02407600       0.58061800      -2.37157500
C       -8.67480000       0.79037300      -1.16960600
F      -10.01166800       1.01211800      -1.19287300
C       -7.95123400       0.76961500       0.02590500
C       -6.59437500       0.54394200       0.04227600
C       -5.86348200       0.52887100       1.32711300
N       -4.93756400      -0.57898700       1.42021600
C       -3.53309000      -0.39691300       1.52035200
O       -3.10107800       0.78312400       1.52637400
C       -2.67561000      -1.59647300       1.61038000
N       -1.26429600      -1.19136600       1.70610400
C       -0.57227400      -0.94188800       2.93707500
C        0.80028900      -0.56851800       2.55204000
C        1.93567800      -0.21513200       3.27034600
C        3.12939800       0.09803200       2.66578500
C        3.25471200       0.07472400       1.29327900
C        4.50367600       0.40058300       0.61916500
N        4.99752800      -0.33419000      -0.39305900
C        6.13820200      -0.05380200      -1.02353200
N        6.64944300      -0.84035600      -2.09422600
C        7.89024900      -0.51767800      -2.76458700
C        8.12139900      -1.56312800      -3.84710600
C        9.57962300      -1.92947300      -3.94989700
O       10.37966300      -0.79312500      -3.80730100
C       10.36376400      -0.30854300      -2.50057300
C        9.06832300      -0.65174900      -1.79994900
N        6.86872900       1.02385000      -0.65184800
C        6.41797700       1.77966100       0.34556400
C        5.23485900       1.50199500       1.01084900
Cl       4.68630900       2.51418400       2.30441400
C        2.13681900      -0.27391500       0.56986300
C        0.93138100      -0.58985300       1.18746900
C       -0.36013000      -0.98021100       0.64148000
O       -0.61010400      -1.10417500      -0.59158400
C       -6.80020400       0.59676600       2.49716400
C       -6.01130400       0.91194900       3.74815100
O       -7.57946500      -0.53843300       2.63479200
C       -5.98168000       0.33937000      -1.17385800
H       -5.24950200       1.46511100       1.35181200
41
Properties=species:S:1:pos:R:3 energy=0.0027793772774109 pbc="T T T"
H       -4.46244900      -0.75690000      -0.17553300
C       -4.10492700      -1.16084100       0.78161300
H       -4.49586500      -0.62825200       1.67209500
O       -4.55328800      -2.47225900       0.88829900
C       -2.56753200      -1.22004600       0.83394000
C       -1.83390800       0.06559200       0.73069300
H       -2.37261000       0.74547500      -0.04409900
H       -2.23899800       0.64720100       1.68272900
O       -0.56612900       0.16771000       0.75741700
C        0.53371400      -0.18024900       0.18517900
C        0.89449300      -1.61936200       0.28391100
C        0.99660000      -2.42420100      -0.84627200
C        1.36934900      -3.75975700      -0.69846200
C        1.64229600      -4.31948800       0.52203400
Cl       2.10451400      -5.99663800       0.71696000
C        1.54359800      -3.52608000       1.64675300
C        1.17125500      -2.19623500       1.49141600
C        1.66309400       0.62010300       0.78585500
C        2.15877400       0.68449000       2.07763700
F        1.64916100      -0.07969200       3.04473900
C        3.18318500       1.56039300       2.32040700
C        3.72168600       2.36598700       1.33002500
C        4.84177600       3.30182600       1.66411900
C        5.74296400       2.68283300       2.69264400
C        5.60294800       3.53901500       0.36384200
O        4.29968500       4.52630100       2.08577300
C        3.23435700       2.30263600       0.06219300
C        2.18627300       1.41077800      -0.20954500
C        1.55927900       1.17015200      -1.49583400
O        1.82841200       1.75160100      -2.59432100
N        0.60524400       0.16835900      -1.25641300
C       -0.15494300      -0.44730500      -2.32514400
C       -1.41105400       0.25038900      -2.66503300
C       -1.48959000       1.63122500      -2.80104600
C       -2.68131600       2.25832800      -3.11767600
C       -3.84082600       1.53972800      -3.31198800
Cl      -5.36418200       2.31333400      -3.71052200
C       -3.72834700       0.16401100      -3.16904400
N       -2.55676700      -0.43463900      -2.85974100
C       -2.14609800      -2.09434400       2.03684700
C       -1.96382600      -2.55118200       0.62355400
39
Properties=species:S:1:pos:R:3 energy=0.0272429668013915 pbc="T T T"
C       -8.72207600       2.42424100       2.02681100
C       -7.94595900       1.17789900       2.18956800
C       -7.77895400       0.70009700       3.48193300
C       -7.06094900      -0.45544400       3.64762600
C       -6.50572400      -1.14928300       2.57771200
C       -6.67250500      -0.67347400       1.29517900
C       -6.07768500      -1.41307400       0.12965700
C       -7.24486600      -2.07209400      -0.59175500
O       -7.79844600      -3.02505300       0.23584000
N       -5.45871900      -0.39630500      -0.70665000
C       -4.06760300      -0.38284800      -1.00406400
O       -3.36739800      -1.30334900      -0.50795800
C       -3.47069000       0.68853800      -1.87382300
N       -2.04001800       0.41120600      -1.97677600
C       -1.42265100      -0.40581800      -2.98206800
C        0.01375100      -0.37685100      -2.66177400
C        1.10340400      -0.99504800      -3.30085900
C        2.38183200      -0.81007700      -2.79644600
C        2.62437600      -0.03868100      -1.68624100
C        3.95767300       0.15584600      -1.15784800
N        4.25724100       0.07750900       0.15142200
C        5.52907300       0.26739600       0.61342100
N        5.76014400       0.16543000       2.02770800
C        7.09331000       0.36193800       2.53734200
C        7.99233600      -0.67907400       1.90785500
C        9.44811000      -0.41065800       2.23041200
O        9.80727000       0.89693000       1.89619200
C        8.77188000       1.52944600       1.19438300
C        7.57326300       1.72260600       2.08647600
N        6.55380000       0.54285400      -0.20897500
C        6.29313600       0.62875800      -1.52124900
C        5.01501200       0.43914300      -1.99735300
Cl       4.66328000       0.54979100      -3.71673400
C        1.54684300       0.55339900      -1.08078300
C        0.24610900       0.39602000      -1.55153000
C       -1.04739800       0.89819300      -1.11206300
O       -1.22389200       1.65656900      -0.10158900
C       -7.39255200       0.48792200       1.11360500
H       -5.33375800      -2.14460000       0.48467700
43
Properties=species:S:1:pos:R:3 energy=0.0633630314973301 pbc="T T T"
C       10.18352200      -2.04615100       0.07380500
O        9.65573500      -1.30340600      -0.98293000
C        8.34197600      -0.86027200      -1.04796200
C        7.95268400      -0.13388800      -2.15324600
C        6.64777500       0.32607200      -2.25400200
F        6.27594700       1.03364100      -3.33483300
C        5.74376300       0.05130200      -1.24080700
C        6.10812600      -0.67983500      -0.11273600
C        5.13727300      -0.97141700       0.96891300
C        5.97321300      -1.31567200       2.20789600
O        6.78202900      -0.20718000       2.45558600
N        4.37194300       0.20380000       1.31085800
C        2.96109000       0.16715400       1.28033200
O        2.41226400      -0.91307000       0.94868800
C        2.11340600       1.33693100       1.61950300
C        2.44242900       2.53040900       0.73317200
N        0.70216300       0.96347200       1.48779200
C       -0.28948500       0.90484300       2.51227200
C       -1.54027300       0.47487100       1.85395300
N       -2.79523300       0.25838300       2.37138800
C       -3.74767400      -0.13272300       1.52086900
C       -3.57354400      -0.33582700       0.17111100
C       -4.68899400      -0.76648800      -0.67461400
N       -5.91465200      -0.23859100      -0.61527600
C       -6.92735000      -0.65828100      -1.41144200
N       -8.23084000      -0.09298100      -1.34451000
C       -8.50653000       0.95669300      -0.41185500
C       -7.67660300       2.18592700      -0.59988800
C       -6.91094700       2.49011400       0.64982000
O       -7.77455400       2.74467800       1.71187700
C       -8.71158400       1.73571900       1.88372000
C       -8.36452200       0.51455400       1.03056300
N       -6.69608000      -1.64508700      -2.29877600
C       -5.48642400      -2.22484100      -2.41535700
C       -4.45826600      -1.77330800      -1.58191700
Cl      -2.88543800      -2.51436400      -1.72091100
C       -2.31532400      -0.11486600      -0.32622600
C       -1.27862300       0.29722700       0.52492300
C        0.12245900       0.59569300       0.25877100
O        0.65878600       0.52218100      -0.87239800
C        7.41684000      -1.11594000      -0.05767100
H        4.47608000      -1.82359400       0.70416600
H        2.29343600       1.57411800       2.67516000
