42
Properties=species:S:1:pos:R:3 energy=-0.7271177001310987 pbc="T T T"
C       -8.23090100       1.34031700       2.79524000
O       -8.51075700       0.00344400       2.50138000
C       -7.83790700      -0.61209000       1.46135800
C       -8.12907400      -1.92774800       1.18993700
C       -7.48599800      -2.60140300       0.15700900
F       -7.82566000      -3.90870600      -0.05587400
C       -6.54941100      -1.94172000      -0.59907800
C       -6.25394700      -0.62956800      -0.33410500
C       -5.24797300       0.09337400      -1.13966500
C       -5.95279100       1.03876900      -2.10875000
O       -6.78069700       0.34700500      -2.97476500
N       -4.38649000       0.83669900      -0.24206300
C       -2.98319300       0.60609300      -0.26016900
O       -2.54483900      -0.24992100      -1.07092100
C       -2.10942400       1.36720400       0.65763900
C       -2.53619300       1.03248100       2.06957900
N       -0.71728000       0.94491500       0.44119400
C       -0.20028900      -0.39000700       0.60269500
C        1.24594900      -0.32079000       0.27362500
C        2.21218900      -1.33388400       0.27128100
C        3.50996500      -1.03652000      -0.07233900
C        3.86522600       0.24577500      -0.41299900
C        5.26474200       0.52529800      -0.77508400
N        6.29097900       0.04899700      -0.06683200
C        7.58545100       0.26132600      -0.33564500
N        8.59305400      -0.29768800       0.49033500
C        8.18347500      -1.09836100       1.62373900
C        7.33673500      -0.17612100       2.51061800
C        7.29101200      -2.24804000       1.23613000
O        7.89086600      -3.12512700       0.35447700
N        7.86619100       1.01985600      -1.41228400
C        6.88455800       1.53336000      -2.17251700
C        5.55736700       1.30249300      -1.87808200
Cl       4.26470300       1.97416500      -2.87272200
C        2.89647100       1.22540600      -0.40323700
C        1.58374400       0.96859100      -0.06468800
C        0.36790600       1.76266400       0.03698700
O        0.29275600       3.00587800      -0.20194100
C       -6.90203400       0.01164600       0.68968100
H       -4.66828100      -0.60856200      -1.77059500
H       -2.22908000       2.44190700       0.46300000
H        9.09888100      -1.43140900       2.16884700
42
Properties=species:S:1:pos:R:3 energy=-2.4849466505880216 pbc="T T T"
C       -3.12742900       1.12886500      -2.54335100
C       -2.46417500      -0.22073300      -2.34939200
C       -2.98883000      -0.89994200      -1.14942900
O       -2.20245600      -1.29290600      -0.27025500
N       -4.37390200      -1.09859500      -1.00741500
C       -4.97783100      -1.75381400       0.13356600
C       -5.66152600      -3.00350700      -0.39032800
O       -6.24501200      -3.64056500       0.69766800
C       -5.95848400      -0.88139500       0.82494300
C       -7.17458600      -1.40078100       1.20132300
C       -8.10837100      -0.61087500       1.84738700
F       -9.31760200      -1.08069800       2.23566800
C       -7.79332400       0.70669500       2.10522700
C       -6.58825800       1.22394300       1.73303300
F       -6.24941600       2.52596200       1.97570400
C       -5.64246500       0.43437400       1.08181800
N       -1.02408200      -0.10196100      -2.33017800
C       -0.13514500      -0.69565100      -3.30303400
C        1.24530300      -0.32344300      -2.90372600
C        2.47365200      -0.60962900      -3.45985800
C        3.65262900      -0.15073600      -2.91056600
C        3.63317400       0.62040100      -1.76991200
C        4.87900000       1.11836600      -1.17025700
N        5.08204200       1.04528900       0.14470100
C        6.22360400       1.50051300       0.70299200
N        6.43284200       1.41777100       2.11595300
C        5.43905600       0.84843900       2.99439800
C        5.16941700      -0.57442000       2.62617400
C        6.13711900      -1.47349200       3.37083700
O        5.97002600      -1.23665300       4.73178100
C        6.61534700      -0.02156800       5.01528300
C        5.73625300       1.07529500       4.43906200
N        7.16178200       2.03435200      -0.09860700
C        6.98742200       2.12061400      -1.41331300
C        5.82617500       1.66010600      -2.00149300
Cl       5.52812900       1.74009700      -3.71667000
C        2.40315200       0.90409300      -1.21728200
C        1.21259300       0.45514100      -1.75065000
C       -0.19616800       0.58760600      -1.40201300
O       -0.64666300       1.21756600      -0.42296100
H       -2.76426000      -0.83161300      -3.21860900
H       -4.16873200      -2.04405600       0.82178200
43
Properties=species:S:1:pos:R:3 energy=-0.6931471805599453 pbc="T T T"
C       -3.08947900       3.74149000       1.70941700
C       -3.37371200       2.62620700       0.71705400
C       -2.09916800       1.83303300       0.59228600
N       -2.02880900       1.10779700      -0.66619400
C       -1.47456100      -0.17989900      -0.38150200
C       -0.06905200      -0.23106800      -0.00803300
O        0.41192100      -1.38899300       0.28080900
N        0.84419300       0.85162800       0.07516900
C        0.52991000       2.21485900      -0.26955700
C        1.72777100       3.04348800       0.04953600
C        1.46202800       4.08008100       1.11866100
C        2.18824100       3.76654700      -1.22622900
C        2.73733900       2.05096400       0.47459300
C        4.08465100       2.18044300       0.85161800
C        4.81298700       1.07096600       1.20802000
O        6.03314200       1.13394600       1.55593500
N        4.28317100      -0.17291900       1.21475500
C        5.08881800      -1.33242400       1.59898900
C        5.76212500      -1.93693700       0.42249200
C        7.00619700      -1.53994200       0.00223400
C        7.60959500      -2.13299200      -1.11069300
C        6.97980500      -3.13517900      -1.82442400
F        7.57310500      -3.70947000      -2.91247400
C        5.73361800      -3.52896800      -1.39842100
C        5.13389300      -2.94936700      -0.30378300
C        3.00386100      -0.30424100       0.85785200
C        2.20953700       0.79986100       0.48238000
C       -3.33215500       0.94997100      -1.26683100
C       -4.32790100       0.19260900      -0.49888200
N       -4.07822100      -1.16099500      -0.16763900
C       -5.17802600      -1.53731100       0.76834700
C       -5.30194700      -3.01525500       0.90596200
C       -6.42957300      -0.90889900       0.21453400
O       -6.33587000      -0.60265600      -1.13413800
C       -5.76818600      -1.64846100      -1.81818100
C       -4.38594300      -2.03152000      -1.32141600
C       -3.41219200      -1.95185200      -2.43200700
C       -3.87836500       2.30776900      -1.63594200
N       -3.86536500       3.16460800      -0.50590100
H       -4.13443700       1.96520300       1.19125000
H       -3.16489700       0.43538700      -2.25886300
H       -4.96916500      -1.02331100       1.73748700
H       -4.51888000      -3.09419800      -0.94211200
43
Properties=species:S:1:pos:R:3 energy=-2.1061962789886555 pbc="T T T"
C        9.02336900       1.83594900       0.79442200
O        7.95754200       2.43761700       1.50373100
C        6.66833900       1.89802600       1.40617100
C        5.63742200       2.49175800       2.10109300
C        4.36252600       1.97398500       2.01655000
F        3.38581600       2.59625600       2.71994400
C        4.10866900       0.84891600       1.22922500
C        5.12700100       0.23994500       0.52582200
C        4.85362900      -0.95580400      -0.31023200
C        4.79833600      -2.21608200       0.56234800
O        3.70850100      -2.18495600       1.41064000
N        3.67678500      -0.82803800      -1.11806700
C        3.70707000      -0.92594700      -2.54295800
O        4.83951700      -1.13349000      -3.05794200
C        2.47939200      -0.79230900      -3.38043400
N        1.35077400      -0.56173900      -2.50713400
C        0.50831700      -1.53746800      -1.91455100
O        0.57936900      -2.80582600      -2.03417100
C       -0.50622700      -0.86770700      -1.10578600
C       -1.55455000      -1.37967400      -0.33222200
C       -2.39670100      -0.53180600       0.35414400
C       -3.49761400      -1.03480900       1.16831100
N       -4.72554400      -0.49148300       1.11873800
C       -5.76006700      -0.90598000       1.83330000
N       -7.04955300      -0.35239200       1.79600800
C       -7.39214400       0.75188700       0.95619800
C       -8.84639400       1.15018800       1.10978200
C       -9.27145400       2.14644000       0.07409900
O       -8.17921300       2.61949400      -0.65477300
C       -7.57640100       1.59757700      -1.37639100
C       -7.07407200       0.48137000      -0.50526600
N       -5.56222900      -1.95336300       2.67357700
C       -4.37465000      -2.53719100       2.77213600
C       -3.31272800      -2.10367200       2.03166400
Cl      -1.73235500      -2.85236200       2.13836000
C       -2.15901500       0.82244300       0.24261300
C       -1.12666100       1.32938400      -0.51902500
C       -0.26418200       0.48084600      -1.22093800
C        0.89798300       0.73941500      -2.09448900
C        1.94764500       1.49651700      -1.31424700
C        6.38965800       0.79093700       0.63834800
H        5.71581700      -1.13312100      -1.00550000
H        0.63827800       1.35626700      -2.97879300
42
Properties=species:S:1:pos:R:3 energy=-1.3862943611198906 pbc="T T T"
C       -8.50665900       1.50607600       4.95750400
O       -7.46424900       1.21267200       4.05744000
C       -7.70648900       0.34993100       2.98254700
C       -6.70057800       0.04232500       2.08023700
C       -7.00053200      -0.80666200       1.05174600
C       -6.02728000      -1.22226500       0.01978500
C       -6.76892400      -1.93763700      -1.08257300
O       -7.62322300      -1.00475900      -1.69692400
N       -5.24038600      -0.11890500      -0.48033500
C       -3.84889400      -0.00563900      -0.35803000
O       -3.23587600      -0.93241700       0.23083000
C       -3.05512400       1.13582300      -0.87811300
C       -3.60523900       2.39922100      -0.25514000
N       -1.65770700       1.00603100      -0.62202500
C       -1.03868000       0.89399500       0.66610000
C        0.41750000       0.78076100       0.45981200
C        1.47081000       0.64912500       1.38168500
C        2.75069300       0.56460400       0.87689700
C        3.04598700       0.60220100      -0.46955700
C        4.42990600       0.50788800      -0.95285300
N        5.27489700      -0.40800000      -0.44619500
C        6.55761500      -0.50288700      -0.88719900
N        7.38310200      -1.49811100      -0.29839000
C        8.75394500      -1.62956600      -0.74163600
C        9.47464900      -2.72411400      -0.01682300
C       10.14514900      -2.22452800       1.24233500
O       11.14939700      -1.30675500       0.97978100
C       10.93094600      -0.58903100      -0.18724700
C        9.46894900      -0.32070800      -0.43126700
N        7.04043700       0.31606200      -1.85156300
C        6.21852500       1.24203300      -2.37716800
C        4.91577700       1.34407000      -1.93457300
Cl       3.85111200       2.55318200      -2.62443100
C        1.97942500       0.73221700      -1.33241800
C        0.66585000       0.82225500      -0.88529200
C       -0.60552100       0.96121200      -1.56847900
O       -0.72909200       1.03060600      -2.83885100
C       -8.28251500      -1.30588700       0.97235900
C       -9.27894400      -0.99888900       1.86932300
N       -8.94454300      -0.16078800       2.86643100
H       -5.32495300      -1.93709900       0.50434600
H       -3.27926200       1.20601100      -1.98207700
29
Properties=species:S:1:pos:R:3 energy=-2.4849466505880216 pbc="T T T"
C       -3.27301400       3.26170500      -2.22067800
N       -2.94812600       1.98774300      -1.62445200
C       -3.93835700       1.21319000      -0.93663300
N       -3.77652900       0.04579900      -0.35303500
C       -4.79006500      -0.53190400       0.23528700
C       -4.76811600      -1.78172100       0.90153300
C       -5.90333800      -2.25443500       1.46671200
C       -7.13064500      -1.62331800       1.46337900
C       -7.15222100      -0.39721400       0.80978600
C       -5.99221200       0.11969400       0.21404600
S       -5.59055100       1.53817200      -0.65893500
C       -1.61813500       1.48320600      -1.71735700
C       -1.48555800       0.15178500      -1.03760800
C       -1.08822200       0.37646700       0.38754100
N        0.27481600       0.87358400       0.50941600
C        1.12774000      -0.24568800       0.80194400
C        2.55997300       0.15241400       0.94883700
O        2.80483400       1.05997000       1.95126300
C        3.11276200       0.66623800      -0.36487500
O        4.49996200       0.87938000      -0.30929200
C        5.35095800      -0.18100100      -0.02302900
C        4.84137600      -1.43226000       0.20486100
C        5.66818300      -2.49341200       0.48953400
C        7.05692300      -2.34723400       0.55941600
F        7.86230100      -3.40005400       0.84077500
C        7.55431700      -1.07865000       0.32697300
C        6.72927100      -0.01011300       0.04086500
C        0.60529100       1.54667300      -0.72211400
C       -0.59361800       2.42098400      -1.11356800
36
Properties=species:S:1:pos:R:3 energy=1.791759469228055 pbc="T T T"
C       -4.19030400       3.92455400      -1.77787300
C       -4.02868400       2.64629500      -2.56133800
C       -5.33405100       1.90390900      -2.71154900
O       -3.44447000       2.91459300      -3.81149800
C       -3.10746200       1.72132600      -1.81309500
C       -3.53398000       0.59491300      -1.13885300
C       -2.68149700      -0.24710300      -0.47809400
F       -3.12417800      -1.35154400       0.19596800
C       -1.33775800       0.03577400      -0.48494700
C       -0.86661000       1.13933800      -1.14054700
C       -1.75414400       1.96981300      -1.79641500
C        0.57730000       1.07089300      -1.05164400
O        1.36875900       1.91104500      -1.52806500
N        0.99648400      -0.11106300      -0.33275800
C        2.34119000      -0.61923000      -0.36413700
C        3.40396800       0.33416500      -0.06085300
C        4.01997400       1.04352000      -1.12404500
C        5.04414100       1.95713100      -0.90008900
C        5.47914200       2.19316300       0.38178300
Cl       6.76185600       3.37894600       0.68495000
C        4.86495100       1.49428400       1.41091100
N        3.85359800       0.58964300       1.15933500
C       -0.18984400      -0.70122400       0.19390600
O       -0.35273100      -2.00656700      -0.37163800
C        0.68689700      -2.83493800       0.04272000
C        0.44044500      -4.19156000      -0.62208500
O       -0.74720000      -4.81173800      -0.20988200
C        0.45251800      -4.10116500      -2.19366400
C        1.47513000      -4.88064000      -1.41567000
C       -0.48410500      -0.70228600       1.60663700
C        0.08277100      -1.60388200       2.52002800
C       -0.31417100      -1.59199200       3.83265400
C       -1.27348400      -0.70835200       4.31635500
Cl      -1.81000900      -0.70256900       5.96992700
C       -1.84371400       0.18748400       3.43736200
C       -1.43072700       0.15506200       2.13620500
47
Properties=species:S:1:pos:R:3 energy=-1.7915594892253888 pbc="T T T"
C       -1.88083900       1.89411600       2.03175800
C       -1.31748300       2.04527000       0.66066200
C       -2.27765500       1.74380600      -0.42554500
O       -1.95614300       0.98430800      -1.39156000
N       -3.56011100       2.32823100      -0.34891000
C       -4.54510900       2.08741200      -1.35841000
C       -5.12264600       3.39950000      -1.82196200
O       -5.71326000       4.05051300      -0.74289800
C       -5.59303200       1.21963300      -0.70602900
C       -6.02223500       1.50500800       0.56365300
C       -6.98006800       0.71619500       1.17523400
F       -7.41148000       0.98720700       2.42684000
C       -7.48325600      -0.34458800       0.48857900
C       -7.09117500      -0.67194400      -0.77612800
O       -7.56604800      -1.72194900      -1.50079800
C       -8.46250900      -2.66812400      -1.29730600
C       -9.87180400      -2.58905800      -1.11444300
N      -10.52079200      -1.87127900      -0.08954800
C      -11.96471500      -2.25764300      -0.11357900
C      -10.56460800      -0.42898500      -0.44268800
C       -6.12489300       0.14133500      -1.36548000
N       -0.12043100       1.24860600       0.43998500
C       -0.12110300      -0.21170400       0.54656500
C        1.27198700      -0.63016800       0.27318700
C        1.83364100      -1.88079100       0.25216900
C        3.17764400      -2.07450400      -0.03194400
C        4.00319300      -0.98930100      -0.30702800
C        5.41045000      -1.23570900      -0.59512300
N        6.41737500      -0.51555700      -0.07428400
C        7.71998500      -0.73851700      -0.32682000
N        8.75640600       0.04797600       0.24264400
C       10.12919200      -0.26234500      -0.08002900
C       10.47506500      -1.67267500       0.36613700
C       10.49271600      -1.74426400       1.88406400
O       11.04788200      -0.59186300       2.41879500
C       11.93489400       0.01560100       1.52479900
C       11.08949500       0.75111900       0.50237000
N        8.02013700      -1.75821400      -1.16175400
C        7.09269700      -2.54236300      -1.73866500
C        5.77472300      -2.26556000      -1.44210400
Cl       4.54003500      -3.26404500      -2.17327500
C        3.41981300       0.25887000      -0.28102600
C        2.07437300       0.45337000       0.00359100
C        1.19894400       1.61329600       0.10961300
O        1.54958900       2.81519400      -0.06739600
H       -1.06560800       3.13801600       0.52790200
H       -4.09323400       1.48657000      -2.18692600
42
Properties=species:S:1:pos:R:3 energy=-1.4554300999547527 pbc="T T T"
H        0.18142600      -3.84785200       1.33317200
C        0.11577700      -4.22148300       0.34711600
H       -0.55637400      -5.14511400       0.38153300
O        1.36222700      -4.78011800      -0.05517000
C       -0.41526300      -3.30031400      -0.74405300
C        0.26677100      -2.11005800      -1.23886600
H       -0.04014700      -1.86519600      -2.32961800
H        1.34446800      -2.54462300      -1.51469800
O        0.57237600      -0.95439400      -0.64891100
C       -0.47843300      -0.15952700      -0.23714700
C       -1.53351200      -0.06096900      -1.26741200
C       -1.19979600       0.17654700      -2.57405200
C       -2.17698800       0.22436200      -3.52447100
C       -3.51563200       0.04262200      -3.23269800
Cl      -4.72352700       0.11285600      -4.52345800
C       -3.83587000      -0.19331500      -1.91355600
C       -2.83062700      -0.23840600      -0.95753500
C       -0.07421300       1.33317000      -0.14040300
C        0.81886800       2.11934300      -0.81242600
F        1.77006800       1.55840800      -1.58771800
C        0.72512000       3.50971800      -0.63922600
C       -0.19956700       4.11898300       0.15959800
C       -0.31569700       5.57960500       0.36347400
C        0.91464700       6.29624900      -0.14803700
C       -1.59769200       6.15417500      -0.24844600
O       -0.41888500       5.87794000       1.73838100
C       -1.09686800       3.29505700       0.84202400
C       -1.00455000       1.91081600       0.67256700
C       -1.57162900       0.80477900       1.49601000
O       -2.47197900       0.89654200       2.35665800
N       -0.83444500      -0.36298300       1.06879200
C       -0.41449400      -1.42752500       2.02977000
C        1.08003700      -1.13791800       2.19818800
C        1.50557600       0.00212000       2.83524400
C        2.86788300       0.31705900       2.90653200
C        3.79314600      -0.50207700       2.34550000
C        5.22041200      -0.24422500       2.35290700
N        6.37361000      -0.07235200       2.35556100
C        3.34015600      -1.66127900       1.70231800
N        2.03055000      -1.91002900       1.66621900
C       -1.06914400      -4.13843400      -1.89529700
C       -1.90778200      -3.45216200      -0.91836500
38
Properties=species:S:1:pos:R:3 energy=-0.7620686260263672 pbc="T T T"
O       -4.90698200       0.21451700      -4.14536600
C       -4.02995300      -0.02548300      -3.24529300
C       -2.91492400       0.88139400      -3.16849800
N       -1.91163600       0.61034400      -2.16537800
C       -1.97349500       1.17905400      -0.85520500
C       -0.72242200       0.75860700      -0.18747400
C       -0.20729400       1.05562300       1.08855900
C        0.98517300       0.51774600       1.49087200
C        1.71972000      -0.32618200       0.67347800
C        3.00342300      -0.86256600       1.14592900
N        3.91411700      -0.05225900       1.73716600
C        5.09875200      -0.50781300       2.17562500
N        6.06450300       0.34059300       2.78939800
C        5.70032800       1.75187100       2.92125800
C        5.40104300       2.25316900       1.49920800
C        6.47307000       1.63367100       0.62280300
O        7.72318200       1.75892100       1.18690400
C        7.83222500       2.78052600       2.12068600
C        6.95289000       2.54416400       3.33871900
N        5.37131200      -1.79746600       2.01685600
C        4.49802800      -2.66445500       1.42983800
C        3.27669300      -2.20045400       0.97717000
Cl       2.09283400      -3.25006900       0.21311300
C        1.19725000      -0.60255600      -0.56799100
C       -0.00584100      -0.07526000      -1.00867500
C       -0.74849300      -0.17740300      -2.25884000
O       -0.41422800      -0.85793700      -3.26688900
N       -4.18649500      -1.12586300      -2.39909700
C       -5.37321100      -1.91752100      -2.64253700
C       -6.54424000      -1.16256300      -2.04673300
C       -6.16132200      -0.45571100      -0.80161700
C       -7.12527900       0.47912200      -0.49389700
C       -7.01576200       1.28644100       0.63015000
C       -5.92900100       1.15819000       1.45670400
C       -4.97106300       0.21888400       1.13895100
C       -5.07427600      -0.58486900       0.02545000
C       -3.89480100      -1.47745500      -0.04164200
C       -3.19382200      -1.36901900      -1.38370700
43
Properties=species:S:1:pos:R:3 energy=-0.5390536452225451 pbc="T T T"
C       -5.91312200      -3.86250800       1.81068100
O       -7.28022000      -3.57774100       1.51516500
C       -7.57548000      -2.42424500       0.80562400
C       -8.89736300      -2.13274000       0.51033500
C       -9.23720700      -1.00655300      -0.18720000
F      -10.52471600      -0.68831300      -0.49510300
C       -8.23386000      -0.14491700      -0.60340200
C       -6.90847300      -0.39606500      -0.33165100
C       -5.89612700       0.57315500      -0.81062600
C       -6.58752500       1.88810700      -1.07263800
O       -7.48329800       1.76422400      -2.13183900
N       -4.96920100       0.77136300       0.31298800
C       -3.59988800       0.48258800       0.18093300
O       -3.21037400       0.04584100      -0.94918800
C       -2.63490300       0.67201400       1.29852700
C       -3.07533100      -0.22965700       2.43052600
N       -1.30349600       0.27873000       0.82376400
C       -0.92421800      -0.99307400       0.25763100
C        0.51839700      -0.87207200      -0.05354200
C        1.44804000      -1.74060100      -0.60573000
C        2.76983300      -1.39199400      -0.80250600
C        3.20866300      -0.14011400      -0.44570900
C        4.59129500       0.27140200      -0.63414000
N        5.62293700      -0.51763100      -0.30426000
C        6.91229800      -0.16813100      -0.46527400
N        7.98006900      -1.06115600      -0.09106200
C        9.33823800      -0.60619500      -0.29793500
C        9.66809300       0.63338700       0.45090200
C       10.74156600       1.47495800      -0.15102200
O       10.65310200       1.56095800      -1.53838600
C       10.87408700       0.30745100      -2.05282100
C        9.75523600      -0.62430400      -1.72524400
N        7.15662000       1.04669400      -0.98880000
C        6.18719900       1.90735600      -1.34995500
C        4.87188900       1.51700000      -1.17118400
Cl       3.52777600       2.54231400      -1.59980900
C        2.28108100       0.72043200       0.10300200
C        0.96494700       0.37703800       0.30031900
C       -0.16734800       1.10705900       0.85106000
O       -0.08740500       2.28752000       1.26991500
C       -6.60355400      -1.53926400       0.37269500
H       -5.35066600       0.18753300      -1.69711200
H       -2.60759200       1.70015000       1.67378100
47
Properties=species:S:1:pos:R:3 energy=-1.2612488721456663 pbc="T T T"
C       -2.66551200       4.28022300       3.03271000
C       -2.66824700       3.14783600       2.02750300
C       -3.61046400       2.07171200       2.42733700
O       -4.82411300       2.29725200       2.64090200
N       -3.14581800       0.74738000       2.57693800
C       -3.99016700      -0.35498700       2.96086400
C       -3.55689700      -0.91957400       4.28743000
O       -2.25120600      -1.37981300       4.23252700
C       -4.03047900      -1.37019500       1.88848500
C       -3.91244000      -2.71548400       2.13036300
C       -3.95994500      -3.60008600       1.07449300
C       -4.12685900      -3.09350600      -0.20641000
C       -4.24354800      -1.74248200      -0.43119900
N       -4.41428500      -1.21730200      -1.74078500
C       -4.47210900      -2.06842700      -2.89808200
C       -5.65599400      -1.66111900      -3.72469000
N       -5.80080300      -0.24657700      -3.89617500
C       -7.09376900      -0.01756900      -4.53632700
C       -5.86859700       0.45338800      -2.60777000
C       -4.53429600       0.21474700      -1.92204600
N       -4.19017400      -0.93369000       0.63144700
N       -1.34083700       2.58982300       1.85099400
C       -0.53783100       1.98396700       2.89193900
C        0.71736400       1.57812100       2.21523000
C        1.85616000       0.95714400       2.68013700
C        2.93776600       0.65786400       1.87741300
C        2.90271500       0.98663800       0.53695600
C        4.01120900       0.69375700      -0.34523100
N        4.64552700      -0.47711100      -0.34497400
C        5.67586800      -0.75203000      -1.16229200
N        6.35072800      -1.99970000      -1.15791500
C        7.45556700      -2.27023700      -2.04507900
C        7.08529300      -2.17999200      -3.49226700
C        8.29981600      -2.31721400      -4.39241100
O        9.36839200      -2.87616000      -3.66957900
C        8.93364600      -3.98928500      -2.96788200
C        8.15092200      -3.56387300      -1.75217500
N        6.10274500       0.20184100      -2.03783300
C        5.50877900       1.40663200      -2.09262500
C        4.45577500       1.65517200      -1.24084000
Cl       3.63124900       3.21196400      -1.25876700
C        1.77025400       1.60628900       0.06581200
C        0.68471900       1.90556000       0.87616000
C       -0.60147500       2.53549500       0.65776200
O       -0.98739100       2.97340600      -0.47350100
H       -3.03601600       3.54148900       1.05871900
H       -5.02522400       0.04871600       3.10062200
43
Properties=species:S:1:pos:R:3 energy=-1.149800325437543 pbc="T T T"
C       -7.76470300       4.48275100       2.93590700
O       -7.19799500       3.28403500       2.46575200
C       -7.07401700       2.97657100       1.13305800
C       -7.49227400       3.81206000       0.14101300
C       -7.33130300       3.42778300      -1.18617600
F       -7.74899800       4.26287200      -2.16243900
C       -6.74705500       2.19899600      -1.48159300
C       -6.32282000       1.35109300      -0.48872900
C       -5.71007100       0.06092600      -0.85986600
C       -6.72365000      -1.02555900      -1.11614400
O       -7.46197500      -0.84288500      -2.25613100
N       -4.74072200       0.18172400      -1.92961800
C       -3.35734000      -0.09109200      -1.76673900
O       -2.97392600      -0.45547500      -0.62566700
C       -2.40686700       0.05220800      -2.91014700
C       -2.38388000       1.47776500      -3.41926100
N       -1.04766700      -0.28720700      -2.47980300
C       -0.22405200      -1.30143700      -3.07663100
C        1.03378700      -1.28189000      -2.32383000
C        2.18429800      -2.03077200      -2.44848900
C        3.25611800      -1.81883400      -1.59993400
C        3.21835400      -0.85490400      -0.59960800
C        4.35038800      -0.64414900       0.28297500
N        5.02817300      -1.65189900       0.85990600
C        6.08474400      -1.43791300       1.68284200
N        6.75195700      -2.55347100       2.25610300
C        7.85597800      -2.36693300       3.11754000
C        8.60761400      -3.33549500       3.75102600
N        9.54543100      -2.68731600       4.46166800
N        9.40448500      -1.38959500       4.29493100
C       10.24100100      -0.36896100       4.90981400
N        8.37418300      -1.20170200       3.47554400
N        6.50239400      -0.19751300       1.95864900
C        5.86358400       0.84006900       1.41112900
C        4.79223000       0.63918100       0.57599400
Cl       3.95482400       1.98947500      -0.14127200
C        2.06722900      -0.11163000      -0.48126000
C        0.98177100      -0.32337800      -1.33754100
C       -0.32234400       0.31125500      -1.42317200
O       -0.77645400       1.23979500      -0.70261600
C       -6.48821600       1.74375600       0.81594000
H       -5.12406000      -0.27518000       0.04584400
H       -2.67815500      -0.59931700      -3.75896800
43
Properties=species:S:1:pos:R:3 energy=-0.9589373065956277 pbc="T T T"
C       -9.93433900      -1.75181100       2.57152800
O       -9.59148900      -0.38227200       2.76240900
C       -8.36870200       0.11963600       2.34885500
C       -8.11907100       1.46038100       2.57364500
C       -6.91599200       1.98977300       2.17563900
F       -6.57451800       3.29042600       2.34994900
C       -6.00190800       1.16299600       1.56633800
C       -6.23035000      -0.17589800       1.33266900
C       -5.20501500      -1.02247000       0.66938900
C       -5.83773900      -2.29991700       0.12427700
O       -6.84664300      -2.02124900      -0.78474400
N       -4.66350800      -0.31843900      -0.47480100
C       -3.25783700      -0.13428400      -0.54808700
O       -2.55633000      -0.58743800       0.37609800
C       -2.60928600       0.57651800      -1.68503700
C       -3.14404900       2.00349000      -1.78360400
N       -1.16602600       0.59280800      -1.45592500
C       -0.55431800       1.15554100      -0.29438500
C        0.90096100       0.96926500      -0.45134700
N        1.94595500       1.32408800       0.37161800
C        3.19403100       1.03848700      -0.00404800
C        3.49463500       0.40110200      -1.18347600
C        4.89434200       0.10742100      -1.55383000
N        5.77636100      -0.40719800      -0.68019500
C        7.05640700      -0.68887400      -0.97476800
N        7.94685500      -1.23660800       0.00186900
C        7.43977600      -1.49205800       1.35130300
C        8.55277400      -2.06616000       2.20062600
C        9.72985700      -1.13138200       2.30504500
O        9.28430000       0.10953400       2.69449100
C        7.98708400       0.00332600       3.20095600
C        7.05251300      -0.16031400       1.99938100
N        7.52105600      -0.45470300      -2.21166900
C        6.67182700       0.05997200      -3.11727200
C        5.35876800       0.35291600      -2.82855700
Cl       4.34345600       1.01338600      -4.06289300
C        2.44921100       0.04677400      -2.00555200
C        1.13502000       0.33187600      -1.63991000
C       -0.14271100       0.08373100      -2.29046400
O       -0.32988200      -0.48776000      -3.41062500
C       -7.44093600      -0.69869500       1.73563100
H       -4.40982500      -1.34384900       1.37792200
H       -2.83471400       0.08952400      -2.64845100
