53
Properties=species:S:1:pos:R:3 energy=-1.4134600291926602 pbc="T T T"
O      -10.54403100      -3.68661300       2.11981200
C      -10.45426400      -2.49590800       1.69051100
C      -10.99776200      -1.41534200       2.55808000
C      -11.48363500      -0.24617400       1.76580800
C      -10.50806500       0.20843200       0.71944300
N       -9.31769700       0.72119800       1.35661500
C       -9.12826300       1.14418000       2.70221600
O      -10.00537000       1.13593900       3.59063500
C       -7.75118500       1.59307600       2.89985400
C       -7.04559200       2.09413700       3.97271900
C       -5.70253200       2.44904100       3.84601500
C       -5.07318400       2.29028700       2.61167200
C       -5.76689000       1.79259900       1.53707800
N       -5.11723400       1.62908700       0.30358400
C       -3.75578800       1.98937300       0.06662800
C       -2.83597500       1.26175200       0.99968500
O       -2.94420700      -0.08773400       0.85182200
C       -2.68769300      -0.52924900      -0.38934300
C       -1.40720500      -0.37382300      -1.02029300
O       -0.80538100       0.78254700      -1.26728600
C       -0.39598900       1.60241000      -0.25410300
C        0.65072300       0.94351300       0.65068100
N        1.78962700       0.61881000      -0.21423600
C        2.98125700       0.00579900       0.26656300
O        3.08910600      -0.26636600       1.45573200
C        4.05824600      -0.28174000      -0.70483900
C        3.75258900      -0.67325500      -1.99439100
C        4.71162500      -0.94012900      -2.94544700
C        6.04950700      -0.81767800      -2.62175600
C        6.36866400      -0.42743100      -1.33947200
C        5.38736300      -0.15838500      -0.37628500
N        7.68843200      -0.30806300      -1.05293000
C        8.61813500      -0.56355600      -1.99038100
N       10.02409200      -0.42741300      -1.70729500
C       10.42471200      -0.02107800      -0.40692600
C       11.78182000       0.16219100      -0.15021600
C       12.17560500       0.55411500       1.10799500
C       11.29266600       0.77587500       2.13192000
C        9.93421000       0.59926900       1.89552000
Cl       8.83083500       0.88791200       3.20418400
C        9.54402500       0.20574300       0.63339900
C        8.32070000      -0.95786500      -3.28338600
C        9.30656800      -1.21640800      -4.22743300
C        8.87624800      -1.60815000      -5.49645500
N        7.57570300      -1.73374700      -5.80732300
C        6.60750800      -1.48205200      -4.88805000
C        6.98847500      -1.08748500      -3.60396700
C       -7.10397400       1.44703200       1.68947500
C       -8.04139600       0.91188800       0.71947800
O       -7.81875700       0.64471600      -0.49049500
C      -10.15093700      -0.93292600      -0.14837600
O      -10.12286400      -0.71481700      -1.40262600
N       -9.86257000      -2.19086200       0.43618600
29
Properties=species:S:1:pos:R:3 energy=-2.900422093749666 pbc="T T T"
O        4.15716900      -2.07678200      -1.54428200
C        4.31095600      -1.68725700      -0.36080300
C        3.84351900      -2.59900700       0.71754800
C        2.33528600      -2.72701500       0.54749100
C        1.68418700      -1.35091000       0.67550100
N        0.25802200      -1.51988700       0.49735200
C       -0.11266300      -1.88640400      -0.82867500
C       -1.46971300      -1.49385000      -1.27761800
C       -1.89713700      -0.09597400      -0.91674700
N       -3.23425000      -0.06354300      -0.35589600
C       -3.96125000      -1.09160100       0.09168000
O       -3.53507700      -2.29275900       0.07377400
N       -5.14497600      -0.62650900       0.53085200
C       -5.16684300       0.71180200       0.35863400
C       -6.13606500       1.65010400       0.64178000
C       -5.88141600       2.96812600       0.35449000
C       -4.68281200       3.35792200      -0.20680100
C       -3.74346100       2.38743700      -0.47258000
C       -3.95960000       1.05676400      -0.19997300
C       -0.89799400       0.58289900      -0.00662000
C       -0.49309600      -0.42086100       1.05407600
C        4.92062700      -0.39557300      -0.04037700
C        5.08834400       0.00838200       1.26418700
C        5.66219300       1.24504800       1.57248700
C        6.08084600       2.10333000       0.57518400
F        6.64078900       3.31338600       0.85239200
C        5.91122700       1.69403400      -0.73004200
C        5.33690500       0.45737100      -1.04188100
H       -5.91371800      -1.20867400       0.93694000
27
Properties=species:S:1:pos:R:3 energy=-1.3216308477941685 pbc="T T T"
O        3.07746800       0.52744500       1.97274800
C        3.47016200       0.58649400       0.78141100
N        2.49149900       0.46776000      -0.24157700
C        1.09261000       0.28588900      -0.01531800
C        0.51493000      -0.34208100      -1.28772000
C        0.77636900      -1.84715700      -1.29083000
N        0.14347000      -2.43620100      -0.11043900
C       -1.29019300      -2.30671300      -0.27567800
C       -1.62843200      -0.83466100      -0.21653900
C       -3.11620800      -0.71298800      -0.40371200
C       -3.95618300      -1.59007500      -1.03083000
N       -5.20623500      -1.08671900      -0.96763400
C       -5.16300000       0.09222700      -0.31136900
C       -6.15431200       0.99677600       0.01309000
C       -5.83588600       2.12639200       0.68683000
C       -4.53465000       2.43136400       1.07871800
C       -3.53743100       1.51567800       0.74897900
C       -3.85511200       0.36058500       0.06095200
C        0.65165500      -1.91165400       1.10315800
C        0.69624300      -0.42057700       1.22158800
C        4.88389600       0.76610500       0.46487800
C        5.29322700       0.86648200      -0.87901400
C        6.62506200       1.02584300      -1.17364700
C        7.60432500       1.09617500      -0.22965500
C        7.20204700       0.99307600       1.14990800
C        5.85858800       0.83597900       1.39748500
H       -6.10390900      -1.48544500      -1.34187000
74
Properties=species:S:1:pos:R:3 energy=-0.9763061642841417 pbc="T T T"
C        1.90181600       5.37923000       2.21029400
C        0.62519500       6.18512400       2.39477900
N        0.66233400       7.44938900       2.68613500
C       -0.46700700       8.11945700       2.83803200
S       -1.65464900       6.92945000       2.56116600
C       -0.61834300       5.61220600       2.26007400
C       -0.92305200       4.20563600       1.93291200
C        0.07096800       3.27840300       1.73457100
C       -0.24589900       1.96565400       1.42714400
C       -1.56162100       1.52408800       1.30536300
C       -1.85371100       0.11104600       0.97558500
C       -0.51782000      -0.47865200       0.42835600
C       -0.80309200      -1.92685200       0.16957000
O       -1.92227400      -2.46389300       0.42754200
N        0.19436300      -2.76832700      -0.38603300
C       -0.09097300      -4.17330600      -0.62858400
C       -0.45232400      -4.87697000       0.67025500
C        0.68495700      -4.79743400       1.67052400
C        0.95640300      -3.34292500       1.95001800
C        2.08317800      -3.13272000       2.93929300
C        2.21990000      -1.61121000       3.10129300
N        2.52151800      -1.02279800       1.79662400
C        3.70319800      -1.44749700       1.14015700
O        4.42820400      -2.29757500       1.70875700
C        4.05176100      -0.88714600      -0.18699900
O        5.13530200      -1.34782100      -0.69474100
C        6.19497600      -1.71535000      -1.33138700
C        7.40829100      -1.04906800      -1.17134800
C        7.49536500       0.11491700      -0.24571400
C        6.41675600       0.51681900       0.50193600
S        7.05325800       1.84153100       1.36826600
C        8.63823500       1.80494800       0.73295400
N        9.76417800       2.67023400       1.02660800
C       10.62335000       2.29996500       2.11193100
C       11.66112500       3.33442500       2.42488700
O       12.05600300       3.97037000       1.24313600
C       11.02271200       4.71033200       0.69755500
C        9.91898100       3.82839700       0.19455700
N        8.59375200       0.78892200      -0.10053900
C        8.51412300      -1.46495900      -1.86262400
C        8.50659800      -2.52635600      -2.72867100
C        7.29811900      -3.17525900      -2.87552300
F        7.27035200      -4.23786900      -3.73478000
C        6.16729400      -2.81519400      -2.22217900
F        4.99304400      -3.46243600      -2.37914600
N       -2.88519900       0.02219900      -0.03263400
C       -2.76084800      -0.27853600      -1.38809300
O       -1.61921200      -0.49393100      -1.87342600
C       -3.92015800      -0.36484700      -2.32739500
C       -3.96282200       0.92935200      -3.11915800
C       -4.55222500       1.91287500      -2.12315300
O       -5.55519000       2.68726700      -2.68245500
C       -5.17506100       1.04945500      -1.01872400
N       -5.19680500      -0.26121100      -1.60788900
C       -6.18348500      -1.25129800      -1.53792900
O       -5.93882100      -2.32919000      -2.19151200
C       -7.45616000      -1.20070800      -0.81234600
N       -8.22670100      -2.42554000      -1.11170900
C       -9.57686200      -2.37852100      -1.49563100
O      -10.12353000      -1.24072200      -1.57845900
C      -10.40186000      -3.54862500      -1.80824600
F       -9.84089000      -4.81261500      -1.75871200
C      -11.86064300      -3.42620600      -1.52387900
C      -11.39828900      -3.36328100      -2.96616900
C       -7.15362800      -1.35022500       0.69012700
C       -6.46389600      -2.68704000       0.84822900
C       -8.46019500      -1.44455500       1.46393400
C       -6.35680900      -0.19212000       1.21323200
C       -2.54168400       2.46779000       1.50778600
C       -2.22972100       3.79856400       1.81896500
H       -2.15437700      -0.50494900       1.82396400
H       -3.87725600      -1.21591400      -3.00148700
H       -3.79839800       2.58595900      -1.69470900
H       -8.05411800      -0.30235000      -0.95742400
34
Properties=species:S:1:pos:R:3 energy=-3.6888794541139363 pbc="T T T"
C        9.42633500      -0.13617100       0.84375100
O        8.14923300      -0.50849100       1.30997700
C        7.04975000      -0.30662700       0.50207300
C        7.19242200       0.25352700      -0.74352100
C        6.10144300       0.45634400      -1.55856700
C        4.81956500       0.10601700      -1.15889400
C        3.64570500       0.29574200      -2.04060300
C        3.04305400       1.64678100      -1.81921900
N        2.65604500       1.78090200      -0.43171600
C        1.83178100       2.95424500      -0.24381000
C        0.53719200       2.85712600      -1.03328700
C       -0.06295000       1.51977200      -1.11122400
N       -1.10195500       1.20669100      -0.16610600
C       -1.56842000      -0.15503000      -0.03847900
N       -1.08124600      -1.23871100      -0.70469300
C       -1.78561400      -2.33810800      -0.31223600
C       -1.73651500      -3.66951100      -0.64051700
C       -2.61738300      -4.57381300      -0.04596900
C       -3.52731800      -4.11342600       0.86542100
C       -3.58480000      -2.78738300       1.19957300
C       -2.71245900      -1.90174600       0.60870100
N       -2.55569500      -0.55546600       0.75466400
C       -3.36982000       0.30017000       1.63943900
C       -4.56398700       0.76873900       0.85077800
C       -5.72634300       0.00370700       0.81901600
C       -6.82914100       0.40206300       0.08782900
C       -6.81148300       1.57107400      -0.63352200
F       -7.87201100       1.97453200      -1.35573100
C       -5.66352900       2.34985700      -0.61555300
C       -4.55757800       1.93330800       0.12860600
C        0.90853000       0.40134600      -1.18411700
C        1.90600800       0.60827300      -0.05667200
C        4.69355400      -0.45070500       0.08710900
C        5.76763200      -0.65502500       0.89975400
41
Properties=species:S:1:pos:R:3 energy=-0.4054151093581228 pbc="T T T"
C       -3.33435300      -0.97351400      -3.58762000
C       -2.23891800      -0.20408500      -2.86960700
C       -1.64240800      -1.00233500      -1.73099800
N       -1.78735400      -0.28006600      -0.45990800
C       -0.88739400       0.81758000      -0.46100300
C        0.54189700       0.47844800      -0.37807000
O        1.33113000       1.49249600      -0.40585100
N        1.08410400      -0.81335500      -0.27408800
C        0.43946900      -2.11579100      -0.18651400
C        1.44458200      -2.98393200       0.54208100
C        1.10029400      -2.98098300       2.00735200
C        1.48283600      -4.38468900       0.01402000
C        2.74750500      -2.33839400       0.25607700
N        3.99525400      -2.81092400       0.39760200
C        5.07237000      -2.05828100       0.07510600
C        4.88152600      -0.78039700      -0.40856000
C        6.07328900       0.03520600      -0.75836800
C        6.57485700       0.83693000       0.37335600
C        7.51475900       0.34039100       1.23722600
C        7.97223400       1.11596400       2.29664400
C        7.47957100       2.39274100       2.48235800
F        7.90428500       3.17941400       3.50716200
C        6.53328300       2.89950200       1.61691900
C        6.09519900       2.12761400       0.58388400
C        3.58252700      -0.29177400      -0.55465800
C        2.49504200      -1.07279000      -0.22088200
C       -3.16696800       0.08777900      -0.36618200
C       -3.64788400       0.38359500       1.02700400
N       -5.04703400       0.73560700       0.92561500
C       -6.03565600      -0.31355100       1.02196100
C       -7.18230300      -0.10004900       0.06139800
C       -8.48256300      -0.38822500       0.78941800
O       -7.20721300       1.13115700      -0.54188800
C       -6.97512900       2.20296900       0.31858800
C       -5.53161600       2.05743000       0.73185400
O       -4.76545400       3.01091800       0.90636200
C       -3.48328600       1.19227000      -1.33999000
N       -2.63289700       1.12049800      -2.48416800
H       -1.41442800      -0.08095100      -3.62785100
H       -3.75943700      -0.80762500      -0.71416900
H       -7.12372100      -0.85679600      -0.75986400
40
Properties=species:S:1:pos:R:3 energy=-0.6286711613755805 pbc="T T T"
C       -7.35379600       3.04675500      -0.07936200
C       -6.72689600       1.72078000      -0.30809800
C       -7.29652400       0.55906100      -0.07263100
C       -8.67625800       0.37150100       0.46646400
C       -6.32614300      -0.49160400      -0.43595500
O       -6.58980000      -1.71272700      -0.31751300
N       -5.13519200       0.12230200      -0.90590500
C       -3.92086100      -0.50454900      -1.36621900
C       -2.97619100      -0.70566700      -0.21084500
C       -3.69814700      -1.60734200       0.80098400
N       -3.72444100      -2.94305100       0.24006000
C       -2.40578700      -3.52064500       0.09884300
C       -2.07946800      -4.47556100       1.21695500
C       -1.38682600      -2.39801000       0.15700600
N       -1.73136500      -1.26828700      -0.58178900
C       -0.91956600      -0.68047900      -1.51805100
C        0.30488600       0.01351600      -1.10992500
O        1.00878800       0.51383400      -2.01748700
N        0.76026800       0.16511500       0.24580600
C        0.06144100      -0.30630500       1.41925600
C        0.93197500       0.03365200       2.56514500
C        0.17498000       0.97159500       3.49774800
C        1.31011600      -1.23711900       3.27525000
C        2.08690200       0.75003700       1.96873700
N        3.19437400       1.32633900       2.52124400
C        4.14434700       1.94040300       1.79843800
C        4.06407400       2.03302900       0.41692900
C        5.12588200       2.72037600      -0.36522500
C        6.24339000       1.84389900      -0.74384400
C        6.23758700       1.13373500      -1.92104000
C        7.29350400       0.30675900      -2.27945700
C        8.37577600       0.19380800      -1.43585800
F        9.42828200      -0.61209200      -1.76202500
C        8.41178800       0.88624600      -0.25965200
C        7.33556100       1.71303300       0.07975900
C        2.95630200       1.45878000      -0.16058400
C        1.96700400       0.81773700       0.60771800
C       -5.35010700       1.55155600      -0.84305000
H       -2.79516300       0.27308700       0.31552300
H       -2.32469700      -4.00349800      -0.91486300
24
Properties=species:S:1:pos:R:3 energy=1.0986122886681098 pbc="T T T"
C        6.18115000       1.86852700       0.07279200
C        6.10663800       1.03721000       1.34244800
S        5.48368300      -0.56806700       0.95888900
O        6.42510100      -1.23335300       0.00495600
O        5.37160000      -1.37372200       2.21972500
C        3.88984800      -0.38905900       0.26704800
C        3.78047200      -0.24669200      -1.10399700
C        2.57663500      -0.09929500      -1.75100900
C        1.41824700      -0.09552800      -0.96884600
O        0.15313600       0.02251500      -1.27380300
C       -0.58327700      -0.03245800      -0.19287100
C       -2.05319600       0.07193000      -0.21388900
C       -2.74750600       0.23603300      -1.39296300
C       -4.12252700       0.33594700      -1.43559000
C       -4.87010900       0.27433400      -0.27799200
C       -6.25227000       0.37210900      -0.29369100
C       -6.99671100       0.31033500       0.86345100
C       -6.31172800       0.14632900       2.04819600
C       -4.93731200       0.04883100       2.06655500
C       -4.18484000       0.11041400       0.90563700
C       -2.79505200       0.00972500       0.94569800
N        0.23562000      -0.19012400       0.83130400
C        1.48931200      -0.23509300       0.40084800
C        2.74308600      -0.38084800       0.99581600
29
Properties=species:S:1:pos:R:3 energy=0.7807000775678068 pbc="T T T"
C        4.39192200       2.08811500      -0.51537200
C        3.85881700       1.34357300       0.75571600
C        4.91884600       1.96014100       1.80591500
O        4.32863800       0.00300900       0.67905500
P        3.00355200      -1.04539700       0.68408600
O        3.56161900      -2.41994900       0.29895100
O        2.06814900      -1.02267200       1.98795000
C        0.84300800      -1.69838700       1.82577900
C        0.35634600      -1.70549800       0.43484800
O       -0.99070000      -1.82956500       0.22179600
C       -1.37159700      -0.88901500      -0.79491900
N       -2.13376100       0.05814600      -0.11466800
C       -3.21052300      -0.34488100       0.53036700
C       -4.21893200       0.39057800       1.14256600
C       -3.93919500       1.61186700       1.02261900
O       -4.84923500       2.60150100       1.64520100
N       -2.93764200       2.30077200       0.47178700
C       -2.00999700       1.43745200      -0.13064500
O       -1.07355000       1.93680800      -0.68457200
C       -0.15364800      -0.59242800      -1.46426600
C        0.00330200       0.16902000      -2.68846500
C       -0.42236300      -1.18900800      -3.28353900
O        0.31726100      -1.72697900      -2.20479900
C        0.81026800      -0.43130600      -0.31831400
O        2.11809700      -0.59718900      -0.75800300
H        0.87879600      -2.53120900      -0.11861100
H       -2.05241400      -1.54030200      -1.43215500
H       -2.72150400       3.28973100       0.62359000
H        0.62644000       0.37306800       0.37810300
32
Properties=species:S:1:pos:R:3 energy=-2.4849466505880216 pbc="T T T"
C       -6.52228500      -0.72247100       1.06186700
O       -5.24589100      -0.46112400       0.47111100
C       -5.08959600      -0.44794800      -0.89853600
C       -6.15175400      -0.68526000      -1.77030700
C       -5.99281400      -0.67086800      -3.14082300
N       -7.08862700      -0.91760600      -4.04268200
C       -4.73406100      -0.41151100      -3.64665800
Cl      -4.46209000      -0.37855900      -5.38158100
C       -3.69158300      -0.17847800      -2.77451400
C       -3.85311100      -0.19324400      -1.40637600
C       -2.67985800       0.06272700      -0.56365900
O       -1.56012100       0.29588300      -1.08988700
N       -2.73766500       0.06216000       0.84643200
C       -1.63204500       0.30347300       1.74415500
C       -1.07641100       1.67813600       1.46882000
C        0.40523900       1.75727500       1.67864600
N        1.15772000       0.76718600       1.00241200
C        2.32902400       0.43696500       1.78931800
C        3.20566300       1.69786200       1.74137500
C        3.53426200       1.96215300       0.29802400
O        4.22637000       0.93321500      -0.34226100
C        5.46063000       0.51021100       0.09785000
C        6.15825000      -0.50933300      -0.52647800
C        7.38319100      -0.87925800      -0.03420500
C        7.96362400      -0.27570300       1.07047300
F        9.17014700      -0.69613500       1.49497400
C        7.26655500       0.74170300       1.69307600
C        6.03064500       1.12365300       1.20609400
C        0.48915800      -0.41172100       0.58993600
C       -0.61235500      -0.78169200       1.50844500
O       -0.24807600      -1.43918600       2.65306900
C       -1.40213300      -2.03226200       3.20188900
20
Properties=species:S:1:pos:R:3 energy=-0.18632957819149348 pbc="T T T"
C        5.10639500      -2.21769600      -0.01160700
C        4.75650100      -1.04057100      -0.86263100
C        3.34577800      -0.60805900      -0.68037400
O        2.59013900      -1.21721800       0.12165700
N        2.78934700       0.49139800      -1.38665100
C        1.38667200       0.86690800      -1.15976300
C        1.28167900       1.20639900       0.31054200
C       -0.12014900       1.61635400       0.69921400
C       -0.08794800       1.92763600       2.18687400
C       -0.12134000       0.51080100       2.77392500
C       -1.08723500      -0.14550300       1.83210600
C       -1.92154400      -1.23314900       1.99705100
C       -2.72681800      -1.64361700       0.95536000
C       -2.73359300      -1.00180400      -0.26546400
C       -1.89707800       0.08205300      -0.41879600
C       -1.07786000       0.50849800       0.62449900
C       -2.10389000       0.56942100      -1.81144800
C       -3.48154400       0.04122000      -2.13905900
O       -3.44748000      -1.22328500      -1.45483000
H       -0.45003400       2.51021400       0.11916400
42
Properties=species:S:1:pos:R:3 energy=-0.2876820724517809 pbc="T T T"
C       -1.61646400      -2.17816700       3.56892400
C       -2.33269600      -1.73853500       2.32913600
C       -1.51721800      -1.77753500       1.08045900
N       -1.48482900      -0.54571800       0.35541200
C       -0.67741200      -0.52284000      -0.79003000
C        0.76584100      -0.57046300      -0.65160300
O        1.49614400      -0.57817700      -1.70147400
N        1.43218700      -0.60825000       0.59540100
C        0.87249900      -0.54842300       1.93696200
C        1.93902600       0.22241800       2.69496800
C        1.67758500       1.70527400       2.52740800
C        1.87429900      -0.20759600       4.13887500
C        3.18013100      -0.20802100       2.04570700
N        4.44593700      -0.17169300       2.50528300
C        5.42332500      -0.63428100       1.70629800
C        5.19949400      -1.14101700       0.44821900
C        6.30731300      -1.65488400      -0.41605200
C        6.89778800      -0.58549500      -1.24922900
C        6.44234900      -0.23835700      -2.49563700
C        7.00987700       0.76245000      -3.26281800
C        8.07901500       1.44025000      -2.75270100
F        8.65477100       2.42202300      -3.47784500
C        8.58589100       1.14015500      -1.50454400
C        7.99518100       0.13185300      -0.76040800
C        3.88489100      -1.16341200       0.00621700
C        2.85988300      -0.69997400       0.79354800
C       -2.74077800       0.13460200       0.24201600
C       -3.46017300      -0.46789800      -0.97173800
N       -4.75248500       0.15257900      -1.17912900
C       -5.00856700       1.31671100      -1.98814400
C       -6.45837100       1.59279200      -1.91928700
C       -7.21843600       2.60207200      -2.52526600
C       -8.57802300       2.65523900      -2.30639800
C       -9.17203200       1.71786600      -1.49644600
C       -8.40335600       0.72601600      -0.90505200
C       -7.04920000       0.65668900      -1.11092600
C       -6.01392100      -0.23663400      -0.64740200
O       -6.16276300      -1.23891200       0.12518900
C       -3.64853900       0.01726800       1.41809500
N       -2.93348400      -0.43949600       2.56437300
H       -3.19105900      -2.45892600       2.18988000
H       -2.60362200       1.21844300      -0.02520300
35
Properties=species:S:1:pos:R:3 energy=-3.101092789211817 pbc="T T T"
O        4.82424000      -2.95434700      -0.54931700
C        5.10711900      -1.73132100      -0.38832200
N        6.34649600      -1.29092900      -0.12304500
C        6.31387100       0.03644500      -0.00978200
C        7.26201300       1.01863400       0.25100900
C        6.89716200       2.32819500       0.30137000
C        5.60176000       2.70421400       0.09877100
C        4.65412300       1.73876000      -0.16026200
C        5.00202700       0.40698400      -0.21607800
N        4.25525200      -0.71037400      -0.45259800
C        2.83743600      -0.76163000      -0.72159200
C        2.26587500       0.60298700      -0.90995000
C        1.00047200       0.80270500      -0.16058600
N        0.95372200       0.27955100       1.12998700
C       -0.05711000       0.71697600       1.96531600
C       -1.47434300       0.32444700       1.61432300
C       -1.83601500       0.86089700       0.26782900
C       -3.18822400       0.58027700      -0.22852700
C       -3.56368900      -0.81720500      -0.38964600
C       -3.37215900      -1.80578800       0.55396800
C       -3.75502400      -3.11120100       0.33667100
C       -4.35067300      -3.47143100      -0.85360700
F       -4.74042800      -4.77132200      -1.08288600
C       -4.55079700      -2.51705000      -1.80106900
C       -4.16253000      -1.21475400      -1.56708100
C       -4.26106400       1.41255200       0.36691500
C       -5.13652700       2.04072200      -0.49131000
C       -6.17717800       2.84036100      -0.01862500
C       -6.35953300       3.02575300       1.33486800
F       -7.38155700       3.81094400       1.80275800
C       -5.48662400       2.39983800       2.19741200
C       -4.44730700       1.60076500       1.71755500
C        1.71025000      -0.86586000       1.46064900
C        2.07517100      -1.62605500       0.22355600
H        7.19379200      -1.88274000      -0.02206200
18
Properties=species:S:1:pos:R:3 energy=-1.098712293668443 pbc="T T T"
C       -2.73278200       3.36817700       0.16392600
O       -3.18186300       2.19223100       0.80975400
C       -2.50844200       0.98087300       0.69229600
C       -2.93043700      -0.16204200       1.31005300
C       -2.24493800      -1.36465500       1.18168400
C       -1.08804900      -1.39832400       0.39406300
N       -0.22154300      -2.37570600       0.07660400
C        0.71652800      -1.86099800      -0.71703400
C        0.49370400      -0.50014900      -0.95280300
C        1.21346800       0.46197900      -1.75822900
C        2.02450000       1.47573500      -1.18653000
N        3.11396400       1.12622600      -0.40194500
C        3.13418500       0.45344300       0.80600100
C        4.47745500       0.19183600       1.43961600
O        2.08299000       0.07849600       1.34893100
C       -0.67254200      -0.24096700      -0.22335100
C       -1.37228700       0.95191300      -0.08240000
H       -0.30390900      -3.37807000       0.42006300
