53
Properties=species:S:1:pos:R:3 energy=0.0400167292931223 pbc="T T T"
O        9.30579400      -1.83858000       3.33571300
C        9.19639700      -0.76087700       2.68961300
C        8.25873400       0.25105100       3.21415800
C        8.09636700       1.41928500       2.27347800
C        7.99939800       0.98697700       0.83060000
N        6.87828900       0.09480500       0.62505100
C        6.82379800      -1.10187100      -0.16609500
O        7.80545100      -1.56491600      -0.82019800
C        5.49205900      -1.68701200      -0.10039400
C        4.91444000      -2.80677400      -0.66645100
C        3.58470500      -3.12684600      -0.42945800
C        2.83463100      -2.29993600       0.39155000
C        3.38658400      -1.18590800       0.96314200
N        2.67330500      -0.30033900       1.82871600
C        1.27793100      -0.57972200       2.03636200
C        0.50266700      -0.22154100       0.79650100
O        0.58329700       1.08883600       0.45596400
C        1.75957900       1.64571200       0.10830000
C        2.41569300       1.14890400      -1.13902500
O        1.60566100       1.34625100      -2.26794200
C        1.37986400       2.73052400      -2.33513600
C        0.51435800       3.07177300      -3.51141100
N       -0.75527500       2.42685000      -3.44027500
C       -1.70743300       2.55201700      -2.40004600
O       -1.40933200       3.30132700      -1.43617300
C       -2.97877500       1.83141700      -2.46106000
C       -3.55751600       1.53770000      -3.67980600
C       -4.74028100       0.85574600      -3.78493700
C       -5.36409200       0.45330200      -2.61129900
C       -4.81693900       0.72763300      -1.37307200
C       -3.61844100       1.42080000      -1.31307200
N       -5.46339800       0.30753900      -0.26361400
C       -6.62488800      -0.36957200      -0.34975100
N       -7.33469900      -0.84453500       0.77264400
C       -6.88869700      -0.63927600       2.12388400
C       -5.76635500       0.10576600       2.38923300
C       -5.32079000       0.30495400       3.68119400
C       -6.05138200      -0.27646100       4.68817100
C       -7.18044100      -1.03018900       4.46631200
Cl      -8.05170400      -1.73796200       5.78749800
C       -7.60460100      -1.21148700       3.14297000
C       -7.17665300      -0.64481000      -1.59342100
C       -8.36439200      -1.32625900      -1.76377200
C       -8.90452000      -1.58963100      -3.00226100
N       -8.25902100      -1.17135700      -4.09929500
C       -7.10360600      -0.50760500      -3.94343900
C       -6.54253600      -0.23060100      -2.73862500
C        4.71264300      -0.88217000       0.71594500
C        5.56962200       0.21905300       1.16440200
O        5.19869000       1.16855500       1.93630400
C        9.23878700       0.25734600       0.47641700
O        9.66680100       0.28673300      -0.70642300
N        9.91022100      -0.46105400       1.50232700
29
Properties=species:S:1:pos:R:3 energy=0.0086159528284628 pbc="T T T"
O        2.99306700       0.03036100      -1.80824700
C        3.79001500      -0.15554500      -0.84777900
C        3.31520500      -0.12927300       0.55879300
C        2.63584600       1.17470300       0.88611600
C        1.46302600       1.37991600      -0.03565500
N        0.45600400       0.32901000       0.06527300
C       -0.18604000       0.41768400       1.36822000
C       -1.22502200      -0.65065200       1.50819200
C       -2.19983600      -0.56344100       0.35688300
N       -3.55982100      -0.38945600       0.84562300
C       -3.97946500      -0.52306700       2.14094300
O       -3.18313100      -0.82173900       3.05958800
N       -5.30036000      -0.28948700       2.21538900
C       -5.76587700      -0.00035000       0.97690100
C       -7.01834400       0.31148900       0.50187300
C       -7.18949400       0.56240700      -0.83904100
C       -6.11745500       0.50249700      -1.69512300
C       -4.88311900       0.18890700      -1.18517000
C       -4.65802100      -0.07162800       0.15145000
C       -1.89903600       0.59501500      -0.55880700
C       -0.48168700       0.54063900      -1.02475200
C        5.23163700      -0.40306300      -1.10433100
C        6.10403300      -0.61476700      -0.06005700
C        7.45095200      -0.82893400      -0.27800400
C        7.95493900      -0.83593600      -1.55569200
F        9.26976600      -1.04054500      -1.75498500
C        7.09885000      -0.62738900      -2.60792800
C        5.73195800      -0.41034200      -2.38244600
H       -5.84859200      -0.33113800       3.10277300
27
Properties=species:S:1:pos:R:3 energy=0.0439188969472542 pbc="T T T"
O        4.02703500      -0.56981600      -2.49590600
C        3.99316500      -0.22868700      -1.29592200
N        2.74088400       0.15097800      -0.75399400
C        1.48275400       0.19740900      -1.42826900
C        0.52765200       0.89450900      -0.42227300
C       -0.10680900      -0.17438400       0.45548700
N       -1.01982300      -0.87856900      -0.47050500
C       -1.44986900       0.05522700      -1.46538700
C       -2.31870600       1.14091200      -0.95556400
C       -3.55729500       0.60933700      -0.35704900
C       -4.77390100       0.57375700      -1.05964500
N       -5.70510100       0.02946700      -0.27376600
C       -5.15463800      -0.29094700       0.90307800
C       -5.65556900      -0.85644200       2.04780300
C       -4.86767500      -1.07628700       3.14163400
C       -3.53135100      -0.72242900       3.10571300
C       -3.03693100      -0.15543600       1.95791000
C       -3.80194400       0.06908100       0.86877700
C       -0.08839600      -1.78284400      -1.19264100
C        0.97441400      -1.07840400      -1.93956100
C        5.20848700      -0.20602100      -0.44578000
C        6.35969800       0.39644000      -0.84698400
C        7.48260500       0.39642200      -0.04215800
C        7.49438000      -0.20364500       1.19928200
C        6.30157000      -0.80707000       1.57193500
C        5.17550600      -0.81724000       0.78099400
H       -6.70014200      -0.09723900      -0.58721100
74
Properties=species:S:1:pos:R:3 energy=0.0622624201077031 pbc="T T T"
C       -0.68270600       4.74959600      -2.72992400
C       -1.42774300       5.51893400      -1.66021800
N       -1.68686900       6.78186200      -1.78191600
C       -2.30821700       7.47775500      -0.92216000
S       -2.61591900       6.11574500       0.34579300
C       -1.85413900       4.90077300      -0.52869400
C       -1.72539700       3.49222800      -0.09904600
C       -2.28331400       3.08364600       1.10706700
C       -2.17136000       1.77551800       1.52260200
C       -1.51571000       0.80330900       0.79126900
C       -1.44504600      -0.59255000       1.29534900
C       -0.09310400      -0.94431000       1.78778700
C        0.34939000      -0.08289000       2.89865500
O       -0.31341900       0.88715600       3.25164600
N        1.57259600      -0.35727800       3.59937400
C        1.94357900       0.54238500       4.66547000
C        3.23056400       0.09089700       5.27644800
C        4.31378500       0.04425100       4.24675700
C        4.51567600       1.38104700       3.61562900
C        3.20954000       1.79002500       2.93186500
C        3.41016500       3.13261900       2.22537600
N        4.49545200       2.94648700       1.25639800
C        4.31511300       1.92754200       0.23383200
O        3.24172600       1.28874200       0.24440300
C        5.41864500       1.76968500      -0.69424300
O        5.31756700       0.84561600      -1.67508600
C        5.10861300      -0.50506500      -1.58627300
C        6.25566000      -1.26591100      -1.32221000
C        7.53820100      -0.60581300      -1.15946000
C        8.69500300      -1.49517100      -0.79041500
S       10.05531300      -0.21439400      -0.68667900
C        8.93142800       1.15184200      -1.11498200
N        9.44555100       2.51178400      -1.20556500
C       10.02318300       2.99604300      -2.41694600
C        9.39973500       4.32323900      -2.78036300
O        8.55703700       4.77174400      -1.75447200
C        9.20843200       4.78905800      -0.52258600
C        9.35204600       3.33860300      -0.05264700
N        7.89060200       0.59757400      -1.25552800
C        6.10095700      -2.62470800      -1.22440000
C        4.86559100      -3.21346300      -1.38018700
C        3.73676400      -2.48201500      -1.64081400
F        2.55008100      -3.07601600      -1.78876100
C        3.89779200      -1.10458300      -1.73914500
F        2.76651100      -0.41947800      -2.03292800
N       -1.82626100      -1.53402300       0.23262000
C       -3.08009700      -2.27050600       0.32620900
O       -3.72659900      -1.99375700       1.36316600
C       -3.47253900      -3.21804700      -0.71895600
C       -2.42211800      -3.10043400      -1.83897900
C       -3.16908300      -3.95410500      -2.87500500
O       -3.13117800      -5.25510100      -2.37673900
C       -4.50659800      -3.32771600      -2.79788500
N       -4.73589400      -3.15756600      -1.31207800
C       -6.08304100      -2.97289700      -0.92801600
O       -6.98819700      -2.95529800      -1.88301400
C       -6.69132500      -2.78197400       0.39488000
N       -8.13429700      -2.41705400       0.21264900
C       -8.55451100      -1.19456900       0.75752500
O       -7.71806300      -0.47365900       1.36800300
C       -9.94933100      -0.68755500       0.65854100
F      -10.86291300      -1.48146400       0.01693500
C      -10.12658700       0.79561200       0.64055000
C      -10.50549900      -0.00321200       1.91872100
C       -6.78747500      -4.11850600       1.10155500
C       -5.45082400      -4.71566600       1.28893500
C       -7.68781000      -5.02175200       0.25124500
C       -7.53390600      -3.92830600       2.41712300
C       -0.96345900       1.21872000      -0.40774000
C       -1.07130300       2.54471600      -0.83889000
H       -2.17440800      -0.69393700       2.13563700
H       -3.23418500      -4.25825900      -0.30817200
H       -2.75647400      -3.85390900      -3.87345400
H       -6.24538400      -2.03183700       1.03437500
34
Properties=species:S:1:pos:R:3 energy=0.003613173784704 pbc="T T T"
C        9.29041400       0.52370800      -1.43171200
O        8.31933800      -0.47423000      -1.49151600
C        7.04642700      -0.26882300      -0.95468800
C        6.09240300      -1.26816000      -1.02199600
C        4.83202800      -1.06418900      -0.49147200
C        4.54738300       0.13493900       0.09752800
C        3.20926500       0.36659900       0.67031400
C        2.33017400       0.95742000      -0.41082900
N        2.29598500      -0.02941500      -1.49994300
C        1.56362400      -1.16933800      -0.98267400
C        0.08803900      -0.96339500      -1.13080900
C       -0.31429500       0.48502700      -1.12344200
N       -0.41389800       1.10204600       0.13535700
C       -1.31927000       0.70016500       1.15077800
N       -1.38393500       1.28081000       2.40015200
C       -2.31911900       0.67868900       3.13605700
C       -2.79475400       0.85378900       4.43890600
C       -3.79599900       0.06492500       4.94858200
C       -4.32478600      -0.91480000       4.13158400
C       -3.85583700      -1.09614700       2.82977900
C       -2.86144700      -0.30128100       2.34570400
N       -2.23857500      -0.27072400       1.13878200
C       -2.52577900      -1.16813100       0.01973000
C       -3.65712200      -0.62481300      -0.78249700
C       -4.97306100      -0.97164300      -0.43137900
C       -6.06734100      -0.50996600      -1.12932600
C       -5.91955900       0.32138300      -2.21294000
F       -6.99942100       0.76958000      -2.88954000
C       -4.62433500       0.67362200      -2.57301700
C       -3.53314900       0.20390200      -1.86516400
C        0.41834100       1.29725800      -2.16011600
C        1.63569300       0.54267400      -2.66260000
C        5.49674300       1.11525200       0.15912600
C        6.75582600       0.94678400      -0.35671800
41
Properties=species:S:1:pos:R:3 energy=0.1106226175307049 pbc="T T T"
C        4.90401700      -2.82011100      -1.63677200
C        4.29125200      -1.44365100      -1.45826900
C        3.18860500      -1.45417900      -0.47367500
N        2.18403900      -0.48565900      -0.58858900
C        0.87452700      -0.85295600      -0.15781300
C        0.32164100      -1.87392400      -1.06501400
O        1.00932000      -2.27712900      -2.03834500
N       -0.97989100      -2.41151100      -0.85710500
C       -1.61567400      -3.40788500      -1.69000500
C       -2.44597400      -4.17883400      -0.69000600
C       -1.53481300      -5.23879900      -0.08267500
C       -3.65985000      -4.80948000      -1.33861800
C       -2.82009500      -3.15083400       0.29720600
N       -3.80340400      -3.07467600       1.21485800
C       -3.89121200      -1.99033700       1.98890500
C       -3.01987900      -0.93466300       1.89703200
C       -3.18592900       0.24336800       2.80011900
C       -4.05433800       1.27154700       2.21428300
C       -3.45525400       2.25147700       1.43848700
C       -4.20590000       3.25344200       0.85252600
C       -5.56497600       3.32400500       1.01000700
F       -6.33429900       4.28250600       0.45713400
C       -6.18720600       2.34721000       1.78723600
C       -5.42384900       1.33753400       2.37660500
C       -2.00839500      -0.99219000       0.96645600
C       -1.91300900      -2.10660500       0.16636200
C        2.19725200       0.38210900      -1.69893700
C        1.68840100       1.76315100      -1.38252800
N        2.43986900       2.43807000      -0.37672800
C        2.17989200       2.38734900       1.05018400
C        3.43875300       2.32096000       1.85652800
C        3.79256900       0.83397600       1.99244600
O        4.52680400       2.94960900       1.30990900
C        4.22478600       3.95110700       0.39072600
C        3.55489800       3.24614400      -0.76241200
O        3.95152100       3.36796500      -1.94375200
C        3.51541100       0.51812300      -2.39901500
N        3.94369300      -0.84920600      -2.73846800
H        5.11116400      -0.78527600      -1.04467700
H        1.47941900      -0.03333500      -2.46865000
H        3.28611500       2.70158600       2.89204400
40
Properties=species:S:1:pos:R:3 energy=0.0883769267161241 pbc="T T T"
C       -3.55216300       4.04955300       1.91519100
C       -4.17179700       2.71183200       1.67556800
C       -5.42657300       2.45144600       1.34910600
C       -6.51779300       3.45431300       1.14498500
C       -5.57143300       1.01060000       1.22084900
O       -6.61211900       0.35279400       0.92137700
N       -4.32675400       0.37004600       1.48732400
C       -4.01901500      -1.01475500       1.48591000
C       -3.56656800      -1.58293800       0.16070200
C       -4.61121500      -1.39785100      -0.88783600
N       -4.24292500      -2.10208000      -2.09925700
C       -2.97281000      -1.62125000      -2.61458700
C       -2.21958900      -2.68944900      -3.37172100
C       -2.18016700      -0.86953300      -1.61649200
N       -2.27202100      -1.22398400      -0.25948200
C       -1.55353200      -0.35025500       0.57900900
C       -0.09652800      -0.36307100       0.54514700
O        0.48678400       0.46998900       1.31239600
N        0.69751100      -1.20065600      -0.24428800
C        0.27506200      -2.24080700      -1.17522100
C        1.30158600      -2.06109200      -2.26818200
C        1.48389700      -3.31493900      -3.08967100
C        0.86790500      -0.88659100      -3.11713800
C        2.53644800      -1.72773700      -1.49205300
N        3.85470900      -1.84628300      -1.77084900
C        4.76033000      -1.45537000      -0.87252600
C        4.43530300      -0.92353700       0.35660400
C        5.48989800      -0.50392000       1.32342000
C        5.77275300       0.94822100       1.04873700
C        5.04227200       1.91744300       1.71184800
C        5.30034100       3.24482300       1.46052700
C        6.28326500       3.62463400       0.55102800
F        6.55262200       4.91607000       0.29133400
C        7.01201700       2.65481400      -0.11056700
C        6.73975900       1.35103400       0.15353600
C        3.08837000      -0.79954300       0.64814400
C        2.15327800      -1.20432400      -0.28199800
C       -3.40389200       1.43857000       1.78114000
H       -3.54523900      -2.71663800       0.34491100
H       -3.27197700      -0.86957700      -3.41042500
24
Properties=species:S:1:pos:R:3 energy=0.4997220956241191 pbc="T T T"
C       -5.17439100      -0.62640200       2.61326100
C       -6.12358500       0.00763900       1.60407700
S       -5.54632200      -0.37929400      -0.02586900
O       -5.57405400      -1.85603300      -0.26552300
O       -6.46679200       0.28580000      -1.01091400
C       -3.91418800       0.26296000      -0.25008300
C       -3.77270500       1.54027300      -0.74479800
C       -2.49678100       2.03603800      -0.91760400
C       -1.37136700       1.29055900      -0.60986800
O       -0.08278900       1.52379900      -0.68033900
C        0.61643500       0.49483400      -0.26901300
C        2.08891800       0.38483700      -0.20304700
C        2.90089500       1.42507600      -0.59500500
C        4.27431300       1.30787700      -0.52778300
C        4.82504600       0.14775000      -0.06772400
C        6.20946800       0.06457800      -0.01355800
C        6.80149200      -1.09946900       0.44868100
C        6.03322400      -2.17217800       0.85395800
C        4.65825000      -2.05384900       0.78626400
C        4.04303900      -0.91545600       0.33364100
C        2.67365100      -0.77447300       0.25722700
N       -0.28113700      -0.44155800       0.08116800
C       -1.52023700       0.01676900      -0.11663900
C       -2.80038500      -0.47007800       0.05263100
29
Properties=species:S:1:pos:R:3 energy=0.3634797463324209 pbc="T T T"
C        5.90211400       1.33954600      -0.83958600
C        4.58841200       0.67328500      -0.45476000
C        3.56671600       0.83564100      -1.56024300
O        4.82069400      -0.65275100      -0.12975100
P        3.33824700      -1.35053500       0.28988800
O        3.43499800      -2.85903600       0.26387900
O        2.90402000      -0.77830800       1.81918800
C        1.61091200      -1.16849400       2.16727100
C        0.72986300      -1.32579400       0.95589000
O       -0.60565900      -1.04528400       1.23596400
C       -1.17891900      -0.77082500      -0.00417800
N       -2.39268500      -0.00145000       0.10825300
C       -3.52250700      -0.42883900      -0.48819800
C       -4.70125300       0.28554000      -0.39915000
C       -4.70170100       1.45685500       0.31881500
O       -5.74722600       2.15137200       0.43511700
N       -3.56143700       1.86092600       0.90406500
C       -2.41868800       1.15203600       0.80772500
O       -1.34064300       1.52309800       1.35432600
C       -0.13123000      -0.11419300      -0.84820900
C       -0.43548700       1.22326300      -1.41021900
C       -0.88278300       0.35491800      -2.57347200
O       -0.00371200      -0.61969300      -2.13514100
C        1.12742500      -0.26522800      -0.05424800
O        2.17568400      -0.79993500      -0.80864900
H        0.88390800      -2.33092900       0.54174200
H       -1.40884000      -1.75612600      -0.46605800
H       -3.51910600       2.74393100       1.45793700
H        1.46888500       0.66700800       0.43482600
32
Properties=species:S:1:pos:R:3 energy=0.0133402438387857 pbc="T T T"
C       -5.26842800       1.53532600      -2.30604200
O       -4.37490600       0.83898300      -1.45100300
C       -4.76520000      -0.33822200      -0.83205900
C       -6.00736700      -0.90737400      -0.99105700
C       -6.30618300      -2.09079200      -0.32835400
N       -7.59264700      -2.72305800      -0.46288100
C       -5.40210100      -2.72621400       0.49067000
Cl      -5.82448100      -4.23111700       1.31234200
C       -4.16677000      -2.14900300       0.64182900
C       -3.85693000      -0.97158400      -0.01232300
C       -2.52597100      -0.37436100       0.16693200
O       -1.69854200      -0.94820000       0.91893200
N       -2.12485300       0.81590400      -0.46247900
C       -0.85274400       1.47089500      -0.34418600
C        0.23242600       0.60477300      -0.81014200
C        0.84250200      -0.23866900       0.22250200
N        1.13074900       0.45549600       1.40325900
C        2.53056200       0.58841400       1.64602600
C        3.17455300       1.49953200       0.64390200
C        3.05475800       1.02854400      -0.76432000
O        3.69614100      -0.25363300      -0.83434800
C        5.05118600      -0.26082800      -0.48479100
C        5.77293600      -1.45531600      -0.51842500
C        7.10583300      -1.48419200      -0.17805900
C        7.76936300      -0.34649400       0.20439200
F        9.08310900      -0.33948100       0.54852800
C        7.06250300       0.82967500       0.23806100
C        5.73252700       0.87365800      -0.09881200
C        0.39999500       1.54628500       1.82887000
C       -0.63158500       2.15446500       0.96076400
O       -0.15507100       3.45186500       0.64123100
C       -1.08536200       4.14472100      -0.12869500
20
Properties=species:S:1:pos:R:3 energy=0.1378544114588987 pbc="T T T"
C        6.30604500       0.39994400      -0.46501900
C        4.88630200       0.71493500      -0.13531400
C        4.05271700      -0.50603200       0.03798800
O        4.61592200      -1.62096500      -0.10708000
N        2.68681600      -0.48463700       0.35112800
C        1.85974600      -1.66489900       0.52352600
C        0.45514400      -1.14845100       0.85267700
C        0.05448200      -0.29988500      -0.36132800
C        1.00650200       0.83547600      -0.56917700
C        0.19994500       2.09069300      -0.65433100
C       -1.17243400       1.68432500      -0.29184700
C       -2.31687000       2.45279800      -0.10966300
C       -3.49629500       1.82394500       0.23218000
C       -3.59401800       0.45707400       0.40309100
C       -2.45795500      -0.29146700       0.22068800
C       -1.27779200       0.32974400      -0.12049700
C       -2.83333000      -1.70648400       0.46123300
C       -4.33871700      -1.67344800       0.19943900
O       -4.66594200      -0.38989100       0.74364500
H        0.02973200      -1.00277600      -1.21897300
42
Properties=species:S:1:pos:R:3 energy=0.1245136673422085 pbc="T T T"
C       -2.18800700      -3.39466500      -2.44406200
C       -2.21112200      -2.02901100      -1.80223700
C       -1.46059100      -2.10863400      -0.48391500
N       -1.52082000      -0.83412700       0.17765000
C       -0.81257700      -0.91630100       1.41885500
C        0.62502900      -1.03767800       1.36892300
O        1.25516300      -1.14400700       2.48058100
N        1.39716000      -1.04627300       0.19070900
C        0.96763100      -0.88874500      -1.18352900
C        1.92847800      -1.79645000      -1.91512200
C        2.08717800      -1.22601200      -3.31256100
C        1.43475200      -3.22289400      -2.00247800
C        3.17450800      -1.65209200      -1.14259500
N        4.49627600      -1.86518700      -1.42248500
C        5.44893500      -1.64496000      -0.50005900
C        5.16094300      -1.19621900       0.77125800
C        6.26003100      -0.97386600       1.74566600
C        6.80602600       0.40324800       1.63866400
C        7.86816300       0.64970400       0.79313000
C        8.41446100       1.90212600       0.65103900
C        7.91226800       2.97518100       1.36014900
F        8.46200900       4.21742800       1.21237000
C        6.85332800       2.74637700       2.20714200
C        6.30472900       1.47396700       2.34618300
C        3.82942200      -0.97966900       1.05892100
C        2.83747700      -1.20300700       0.11604400
C       -2.85605900      -0.42884700       0.40179500
C       -3.21013600       0.85314300      -0.37362900
N       -4.61747000       1.20468400      -0.08300900
C       -5.77199200       0.77630700      -0.81057300
C       -6.93131700       1.40177600      -0.15434000
C       -8.30779500       1.31979200      -0.47454700
C       -9.23849700       1.98809300       0.28188500
C       -8.82251500       2.74053800       1.35738300
C       -7.47163400       2.81530900       1.66374600
C       -6.51727600       2.15049200       0.91537400
C       -5.07068600       2.03539700       0.97158100
O       -4.30982700       2.59149400       1.83309800
C       -3.81355400      -1.47297500      -0.12445900
N       -3.61103600      -1.69389900      -1.55347700
H       -1.69720000      -1.32109100      -2.46576600
H       -3.08385700      -0.16844600       1.45699000
35
Properties=species:S:1:pos:R:3 energy=0.0069483598138766 pbc="T T T"
O        2.47414800      -2.39201700      -1.24526200
C        3.39641900      -1.66914400      -0.78755700
N        4.69749300      -1.89348900      -0.98795800
C        5.37694000      -0.92497700      -0.35421500
C        6.71548700      -0.67447000      -0.23311900
C        7.16038300       0.40551600       0.48496700
C        6.24509600       1.22408100       1.07529100
C        4.90744700       0.98953600       0.96496800
C        4.44988600      -0.09297900       0.24567900
N        3.24311600      -0.56249600      -0.02929200
C        1.96033800      -0.03847900       0.37423500
C        2.08527900       1.34802600       0.96321400
C        1.99776900       2.41735200      -0.08767500
N        0.81704100       2.26689400      -0.84799400
C       -0.38670000       2.78222700      -0.32425000
C       -1.61232100       2.63429700      -1.14189900
C       -2.05028200       1.25549400      -1.46722900
C       -2.37431900       0.40473100      -0.26404800
C       -2.78891100      -0.92306700      -0.73240900
C       -2.51033100      -2.04181100       0.01398700
C       -2.90614000      -3.31138100      -0.43408200
C       -3.57459200      -3.44101000      -1.62217700
F       -3.95722000      -4.66225200      -2.05686500
C       -3.85480400      -2.34241300      -2.36713600
C       -3.45941800      -1.07683600      -1.91902500
C       -3.44246000       1.01487800       0.57222700
C       -3.42513100       0.78694500       1.92787800
C       -4.39957600       1.33005900       2.77268600
C       -5.41104500       2.11416400       2.26526900
F       -6.37130100       2.65402700       3.06946500
C       -5.42559700       2.34098500       0.90469800
C       -4.45237700       1.79854700       0.06117100
C        0.79002100       1.06100500      -1.57424700
C        0.92181600      -0.12458700      -0.69059000
H        5.16384500      -2.65735800      -1.52457900
18
Properties=species:S:1:pos:R:3 energy=0.0550250664243987 pbc="T T T"
C       -1.87641300       3.96756700       0.44918000
O       -2.87591200       2.94944300       0.50899500
C       -2.54888700       1.60722800       0.28259000
C       -3.59586300       0.71175700       0.36127500
C       -3.29512100      -0.61687700       0.14060700
C       -2.00436700      -1.02047100      -0.14486600
N       -1.53448600      -2.25460200      -0.38666100
C       -0.21852300      -2.14803800      -0.61446000
C        0.17650500      -0.83323400      -0.52129000
C        1.55893500      -0.26394500      -0.70352800
C        2.17779000       0.08078500       0.61723600
N        3.50636000       0.61771000       0.43198500
C        4.56822400      -0.06481100      -0.17571400
C        5.93041300       0.55735600      -0.33574500
O        4.36903500      -1.23823900      -0.59950700
C       -0.96157700      -0.11509000      -0.22158500
C       -1.25598100       1.21137900      -0.00219600
H       -2.12013100      -3.14791900      -0.38896000
